
---------- Begin Simulation Statistics ----------
final_tick                               180234075000                       # Number of ticks from beginning of simulation (restored from checkpoints and never reset)
host_inst_rate                                 103413                       # Simulator instruction rate (inst/s)
host_mem_usage                                1000140                       # Number of bytes of host memory used
host_op_rate                                   203685                       # Simulator op (including micro ops) rate (op/s)
host_seconds                                   966.99                       # Real time elapsed on the host
host_tick_rate                              186386161                       # Simulator tick rate (ticks/s)
sim_freq                                 1000000000000                       # Frequency of simulated ticks
sim_insts                                   100000001                       # Number of instructions simulated
sim_ops                                     196961782                       # Number of ops (including micro ops) simulated
sim_seconds                                  0.180234                       # Number of seconds simulated
sim_ticks                                180234075000                       # Number of ticks simulated
system.clk_domain.clock                          1000                       # Clock period in ticks
system.cpu.apic_clk_domain.clock                16000                       # Clock period in ticks
system.cpu.branchPred.BTBCorrect                    0                       # Number of correct BTB predictions (this stat may not work properly.
system.cpu.branchPred.BTBHitPct              0.000000                       # BTB Hit Percentage
system.cpu.branchPred.BTBHits                       0                       # Number of BTB hits
system.cpu.branchPred.BTBLookups             42526348                       # Number of BTB lookups
system.cpu.branchPred.RASInCorrect             966564                       # Number of incorrect RAS predictions.
system.cpu.branchPred.condIncorrect           4996120                       # Number of conditional branches incorrect
system.cpu.branchPred.condPredicted          47276186                       # Number of conditional branches predicted
system.cpu.branchPred.indirectHits           12993744                       # Number of indirect target hits.
system.cpu.branchPred.indirectLookups        42526348                       # Number of indirect predictor lookups.
system.cpu.branchPred.indirectMisses         29532604                       # Number of indirect misses.
system.cpu.branchPred.lookups                47276186                       # Number of BP lookups
system.cpu.branchPred.usedRAS                 3800382                       # Number of times the RAS was used to get a target.
system.cpu.branchPredindirectMispredicted      3590498                       # Number of mispredicted indirect branches.
system.cpu.cc_regfile_reads                 128227989                       # number of cc regfile reads
system.cpu.cc_regfile_writes                 84640745                       # number of cc regfile writes
system.cpu.commit.amos                              0                       # Number of atomic instructions committed
system.cpu.commit.branchMispredicts           5019833                       # The number of times a branch was mispredicted
system.cpu.commit.branches                   23767493                       # Number of branches committed
system.cpu.commit.bw_lim_events              11353073                       # number cycles where commit BW limit reached
system.cpu.commit.commitNonSpecStalls           11048                       # The number of times commit has been forced to stall to communicate backwards
system.cpu.commit.commitSquashedInsts       119472472                       # The number of squashed insts skipped by commit
system.cpu.commit.committedInsts            100000001                       # Number of instructions committed
system.cpu.commit.committedOps              196961782                       # Number of ops (including micro ops) committed
system.cpu.commit.committed_per_cycle::samples    145349813                       # Number of insts commited each cycle
system.cpu.commit.committed_per_cycle::mean     1.355088                       # Number of insts commited each cycle
system.cpu.commit.committed_per_cycle::stdev     2.450473                       # Number of insts commited each cycle
system.cpu.commit.committed_per_cycle::underflows            0      0.00%      0.00% # Number of insts commited each cycle
system.cpu.commit.committed_per_cycle::0     96919475     66.68%     66.68% # Number of insts commited each cycle
system.cpu.commit.committed_per_cycle::1     11057173      7.61%     74.29% # Number of insts commited each cycle
system.cpu.commit.committed_per_cycle::2      5263550      3.62%     77.91% # Number of insts commited each cycle
system.cpu.commit.committed_per_cycle::3      9942488      6.84%     84.75% # Number of insts commited each cycle
system.cpu.commit.committed_per_cycle::4      4974003      3.42%     88.17% # Number of insts commited each cycle
system.cpu.commit.committed_per_cycle::5      2212365      1.52%     89.69% # Number of insts commited each cycle
system.cpu.commit.committed_per_cycle::6      1626178      1.12%     90.81% # Number of insts commited each cycle
system.cpu.commit.committed_per_cycle::7      2001508      1.38%     92.19% # Number of insts commited each cycle
system.cpu.commit.committed_per_cycle::8     11353073      7.81%    100.00% # Number of insts commited each cycle
system.cpu.commit.committed_per_cycle::overflows            0      0.00%    100.00% # Number of insts commited each cycle
system.cpu.commit.committed_per_cycle::min_value            0                       # Number of insts commited each cycle
system.cpu.commit.committed_per_cycle::max_value            8                       # Number of insts commited each cycle
system.cpu.commit.committed_per_cycle::total    145349813                       # Number of insts commited each cycle
system.cpu.commit.fp_insts                      90617                       # Number of committed floating point instructions.
system.cpu.commit.function_calls              1690748                       # Number of function calls committed.
system.cpu.commit.int_insts                 196122818                       # Number of committed integer instructions.
system.cpu.commit.loads                      28386169                       # Number of loads committed
system.cpu.commit.membars                        6780                       # Number of memory barriers committed
system.cpu.commit.op_class_0::No_OpClass       755879      0.38%      0.38% # Class of committed instruction
system.cpu.commit.op_class_0::IntAlu        155297051     78.85%     79.23% # Class of committed instruction
system.cpu.commit.op_class_0::IntMult          314101      0.16%     79.39% # Class of committed instruction
system.cpu.commit.op_class_0::IntDiv           625387      0.32%     79.71% # Class of committed instruction
system.cpu.commit.op_class_0::FloatAdd           2520      0.00%     79.71% # Class of committed instruction
system.cpu.commit.op_class_0::FloatCmp              0      0.00%     79.71% # Class of committed instruction
system.cpu.commit.op_class_0::FloatCvt           1360      0.00%     79.71% # Class of committed instruction
system.cpu.commit.op_class_0::FloatMult             0      0.00%     79.71% # Class of committed instruction
system.cpu.commit.op_class_0::FloatMultAcc            0      0.00%     79.71% # Class of committed instruction
system.cpu.commit.op_class_0::FloatDiv              0      0.00%     79.71% # Class of committed instruction
system.cpu.commit.op_class_0::FloatMisc             0      0.00%     79.71% # Class of committed instruction
system.cpu.commit.op_class_0::FloatSqrt             0      0.00%     79.71% # Class of committed instruction
system.cpu.commit.op_class_0::SimdAdd              26      0.00%     79.71% # Class of committed instruction
system.cpu.commit.op_class_0::SimdAddAcc            0      0.00%     79.71% # Class of committed instruction
system.cpu.commit.op_class_0::SimdAlu            1660      0.00%     79.71% # Class of committed instruction
system.cpu.commit.op_class_0::SimdCmp              24      0.00%     79.71% # Class of committed instruction
system.cpu.commit.op_class_0::SimdCvt            1398      0.00%     79.71% # Class of committed instruction
system.cpu.commit.op_class_0::SimdMisc          16169      0.01%     79.72% # Class of committed instruction
system.cpu.commit.op_class_0::SimdMult              0      0.00%     79.72% # Class of committed instruction
system.cpu.commit.op_class_0::SimdMultAcc            0      0.00%     79.72% # Class of committed instruction
system.cpu.commit.op_class_0::SimdShift            24      0.00%     79.72% # Class of committed instruction
system.cpu.commit.op_class_0::SimdShiftAcc            0      0.00%     79.72% # Class of committed instruction
system.cpu.commit.op_class_0::SimdDiv               0      0.00%     79.72% # Class of committed instruction
system.cpu.commit.op_class_0::SimdSqrt              0      0.00%     79.72% # Class of committed instruction
system.cpu.commit.op_class_0::SimdFloatAdd            5      0.00%     79.72% # Class of committed instruction
system.cpu.commit.op_class_0::SimdFloatAlu            0      0.00%     79.72% # Class of committed instruction
system.cpu.commit.op_class_0::SimdFloatCmp            0      0.00%     79.72% # Class of committed instruction
system.cpu.commit.op_class_0::SimdFloatCvt          474      0.00%     79.72% # Class of committed instruction
system.cpu.commit.op_class_0::SimdFloatDiv            1      0.00%     79.72% # Class of committed instruction
system.cpu.commit.op_class_0::SimdFloatMisc            0      0.00%     79.72% # Class of committed instruction
system.cpu.commit.op_class_0::SimdFloatMult          210      0.00%     79.72% # Class of committed instruction
system.cpu.commit.op_class_0::SimdFloatMultAcc            0      0.00%     79.72% # Class of committed instruction
system.cpu.commit.op_class_0::SimdFloatSqrt            0      0.00%     79.72% # Class of committed instruction
system.cpu.commit.op_class_0::SimdReduceAdd            0      0.00%     79.72% # Class of committed instruction
system.cpu.commit.op_class_0::SimdReduceAlu            0      0.00%     79.72% # Class of committed instruction
system.cpu.commit.op_class_0::SimdReduceCmp            0      0.00%     79.72% # Class of committed instruction
system.cpu.commit.op_class_0::SimdFloatReduceAdd            0      0.00%     79.72% # Class of committed instruction
system.cpu.commit.op_class_0::SimdFloatReduceCmp            0      0.00%     79.72% # Class of committed instruction
system.cpu.commit.op_class_0::SimdAes               0      0.00%     79.72% # Class of committed instruction
system.cpu.commit.op_class_0::SimdAesMix            0      0.00%     79.72% # Class of committed instruction
system.cpu.commit.op_class_0::SimdSha1Hash            0      0.00%     79.72% # Class of committed instruction
system.cpu.commit.op_class_0::SimdSha1Hash2            0      0.00%     79.72% # Class of committed instruction
system.cpu.commit.op_class_0::SimdSha256Hash            0      0.00%     79.72% # Class of committed instruction
system.cpu.commit.op_class_0::SimdSha256Hash2            0      0.00%     79.72% # Class of committed instruction
system.cpu.commit.op_class_0::SimdShaSigma2            0      0.00%     79.72% # Class of committed instruction
system.cpu.commit.op_class_0::SimdShaSigma3            0      0.00%     79.72% # Class of committed instruction
system.cpu.commit.op_class_0::SimdPredAlu            0      0.00%     79.72% # Class of committed instruction
system.cpu.commit.op_class_0::MemRead        28380926     14.41%     94.13% # Class of committed instruction
system.cpu.commit.op_class_0::MemWrite       11500578      5.84%     99.97% # Class of committed instruction
system.cpu.commit.op_class_0::FloatMemRead         5243      0.00%     99.97% # Class of committed instruction
system.cpu.commit.op_class_0::FloatMemWrite        58746      0.03%    100.00% # Class of committed instruction
system.cpu.commit.op_class_0::IprAccess             0      0.00%    100.00% # Class of committed instruction
system.cpu.commit.op_class_0::InstPrefetch            0      0.00%    100.00% # Class of committed instruction
system.cpu.commit.op_class_0::total         196961782                       # Class of committed instruction
system.cpu.commit.refs                       39945493                       # Number of memory references committed
system.cpu.commit.swp_count                         0                       # Number of s/w prefetches committed
system.cpu.commit.vec_insts                         0                       # Number of committed Vector instructions.
system.cpu.committedInsts                   100000001                       # Number of Instructions Simulated
system.cpu.committedOps                     196961782                       # Number of Ops (including micro ops) Simulated
system.cpu.cpi                               1.802341                       # CPI: Cycles Per Instruction
system.cpu.cpi_total                         1.802341                       # CPI: Total CPI of All Threads
system.cpu.dcache.ReadReq_accesses::.cpu.data     36147763                       # number of ReadReq accesses(hits+misses)
system.cpu.dcache.ReadReq_accesses::total     36147763                       # number of ReadReq accesses(hits+misses)
system.cpu.dcache.ReadReq_avg_miss_latency::.cpu.data 53231.026168                       # average ReadReq miss latency
system.cpu.dcache.ReadReq_avg_miss_latency::total 53231.026168                       # average ReadReq miss latency
system.cpu.dcache.ReadReq_avg_mshr_miss_latency::.cpu.data 51707.716829                       # average ReadReq mshr miss latency
system.cpu.dcache.ReadReq_avg_mshr_miss_latency::total 51707.716829                       # average ReadReq mshr miss latency
system.cpu.dcache.ReadReq_hits::.cpu.data     33561082                       # number of ReadReq hits
system.cpu.dcache.ReadReq_hits::total        33561082                       # number of ReadReq hits
system.cpu.dcache.ReadReq_miss_latency::.cpu.data 137691684000                       # number of ReadReq miss cycles
system.cpu.dcache.ReadReq_miss_latency::total 137691684000                       # number of ReadReq miss cycles
system.cpu.dcache.ReadReq_miss_rate::.cpu.data     0.071559                       # miss rate for ReadReq accesses
system.cpu.dcache.ReadReq_miss_rate::total     0.071559                       # miss rate for ReadReq accesses
system.cpu.dcache.ReadReq_misses::.cpu.data      2586681                       # number of ReadReq misses
system.cpu.dcache.ReadReq_misses::total       2586681                       # number of ReadReq misses
system.cpu.dcache.ReadReq_mshr_hits::.cpu.data      1371428                       # number of ReadReq MSHR hits
system.cpu.dcache.ReadReq_mshr_hits::total      1371428                       # number of ReadReq MSHR hits
system.cpu.dcache.ReadReq_mshr_miss_latency::.cpu.data  62837958000                       # number of ReadReq MSHR miss cycles
system.cpu.dcache.ReadReq_mshr_miss_latency::total  62837958000                       # number of ReadReq MSHR miss cycles
system.cpu.dcache.ReadReq_mshr_miss_rate::.cpu.data     0.033619                       # mshr miss rate for ReadReq accesses
system.cpu.dcache.ReadReq_mshr_miss_rate::total     0.033619                       # mshr miss rate for ReadReq accesses
system.cpu.dcache.ReadReq_mshr_misses::.cpu.data      1215253                       # number of ReadReq MSHR misses
system.cpu.dcache.ReadReq_mshr_misses::total      1215253                       # number of ReadReq MSHR misses
system.cpu.dcache.WriteReq_accesses::.cpu.data     11571281                       # number of WriteReq accesses(hits+misses)
system.cpu.dcache.WriteReq_accesses::total     11571281                       # number of WriteReq accesses(hits+misses)
system.cpu.dcache.WriteReq_avg_miss_latency::.cpu.data 41001.256431                       # average WriteReq miss latency
system.cpu.dcache.WriteReq_avg_miss_latency::total 41001.256431                       # average WriteReq miss latency
system.cpu.dcache.WriteReq_avg_mshr_miss_latency::.cpu.data 38932.677966                       # average WriteReq mshr miss latency
system.cpu.dcache.WriteReq_avg_mshr_miss_latency::total 38932.677966                       # average WriteReq mshr miss latency
system.cpu.dcache.WriteReq_hits::.cpu.data     11391451                       # number of WriteReq hits
system.cpu.dcache.WriteReq_hits::total       11391451                       # number of WriteReq hits
system.cpu.dcache.WriteReq_miss_latency::.cpu.data   7373255944                       # number of WriteReq miss cycles
system.cpu.dcache.WriteReq_miss_latency::total   7373255944                       # number of WriteReq miss cycles
system.cpu.dcache.WriteReq_miss_rate::.cpu.data     0.015541                       # miss rate for WriteReq accesses
system.cpu.dcache.WriteReq_miss_rate::total     0.015541                       # miss rate for WriteReq accesses
system.cpu.dcache.WriteReq_misses::.cpu.data       179830                       # number of WriteReq misses
system.cpu.dcache.WriteReq_misses::total       179830                       # number of WriteReq misses
system.cpu.dcache.WriteReq_mshr_hits::.cpu.data         3156                       # number of WriteReq MSHR hits
system.cpu.dcache.WriteReq_mshr_hits::total         3156                       # number of WriteReq MSHR hits
system.cpu.dcache.WriteReq_mshr_miss_latency::.cpu.data   6878391947                       # number of WriteReq MSHR miss cycles
system.cpu.dcache.WriteReq_mshr_miss_latency::total   6878391947                       # number of WriteReq MSHR miss cycles
system.cpu.dcache.WriteReq_mshr_miss_rate::.cpu.data     0.015268                       # mshr miss rate for WriteReq accesses
system.cpu.dcache.WriteReq_mshr_miss_rate::total     0.015268                       # mshr miss rate for WriteReq accesses
system.cpu.dcache.WriteReq_mshr_misses::.cpu.data       176674                       # number of WriteReq MSHR misses
system.cpu.dcache.WriteReq_mshr_misses::total       176674                       # number of WriteReq MSHR misses
system.cpu.dcache.avg_blocked_cycles::no_mshrs    36.226957                       # average number of cycles each access was blocked
system.cpu.dcache.avg_blocked_cycles::no_targets    24.569814                       # average number of cycles each access was blocked
system.cpu.dcache.blocked::no_mshrs             35879                       # number of cycles access was blocked
system.cpu.dcache.blocked::no_targets            1504                       # number of cycles access was blocked
system.cpu.dcache.blocked_cycles::no_mshrs      1299787                       # number of cycles access was blocked
system.cpu.dcache.blocked_cycles::no_targets        36953                       # number of cycles access was blocked
system.cpu.dcache.demand_accesses::.cpu.data     47719044                       # number of demand (read+write) accesses
system.cpu.dcache.demand_accesses::total     47719044                       # number of demand (read+write) accesses
system.cpu.dcache.demand_avg_miss_latency::.cpu.data 52436.061141                       # average overall miss latency
system.cpu.dcache.demand_avg_miss_latency::total 52436.061141                       # average overall miss latency
system.cpu.dcache.demand_avg_mshr_miss_latency::.cpu.data 50086.211380                       # average overall mshr miss latency
system.cpu.dcache.demand_avg_mshr_miss_latency::total 50086.211380                       # average overall mshr miss latency
system.cpu.dcache.demand_hits::.cpu.data     44952533                       # number of demand (read+write) hits
system.cpu.dcache.demand_hits::total         44952533                       # number of demand (read+write) hits
system.cpu.dcache.demand_miss_latency::.cpu.data 145064939944                       # number of demand (read+write) miss cycles
system.cpu.dcache.demand_miss_latency::total 145064939944                       # number of demand (read+write) miss cycles
system.cpu.dcache.demand_miss_rate::.cpu.data     0.057975                       # miss rate for demand accesses
system.cpu.dcache.demand_miss_rate::total     0.057975                       # miss rate for demand accesses
system.cpu.dcache.demand_misses::.cpu.data      2766511                       # number of demand (read+write) misses
system.cpu.dcache.demand_misses::total        2766511                       # number of demand (read+write) misses
system.cpu.dcache.demand_mshr_hits::.cpu.data      1374584                       # number of demand (read+write) MSHR hits
system.cpu.dcache.demand_mshr_hits::total      1374584                       # number of demand (read+write) MSHR hits
system.cpu.dcache.demand_mshr_miss_latency::.cpu.data  69716349947                       # number of demand (read+write) MSHR miss cycles
system.cpu.dcache.demand_mshr_miss_latency::total  69716349947                       # number of demand (read+write) MSHR miss cycles
system.cpu.dcache.demand_mshr_miss_rate::.cpu.data     0.029169                       # mshr miss rate for demand accesses
system.cpu.dcache.demand_mshr_miss_rate::total     0.029169                       # mshr miss rate for demand accesses
system.cpu.dcache.demand_mshr_misses::.cpu.data      1391927                       # number of demand (read+write) MSHR misses
system.cpu.dcache.demand_mshr_misses::total      1391927                       # number of demand (read+write) MSHR misses
system.cpu.dcache.overall_accesses::.cpu.data     47719044                       # number of overall (read+write) accesses
system.cpu.dcache.overall_accesses::total     47719044                       # number of overall (read+write) accesses
system.cpu.dcache.overall_avg_miss_latency::.cpu.data 52436.061141                       # average overall miss latency
system.cpu.dcache.overall_avg_miss_latency::total 52436.061141                       # average overall miss latency
system.cpu.dcache.overall_avg_mshr_miss_latency::.cpu.data 50086.211380                       # average overall mshr miss latency
system.cpu.dcache.overall_avg_mshr_miss_latency::total 50086.211380                       # average overall mshr miss latency
system.cpu.dcache.overall_hits::.cpu.data     44952533                       # number of overall hits
system.cpu.dcache.overall_hits::total        44952533                       # number of overall hits
system.cpu.dcache.overall_miss_latency::.cpu.data 145064939944                       # number of overall miss cycles
system.cpu.dcache.overall_miss_latency::total 145064939944                       # number of overall miss cycles
system.cpu.dcache.overall_miss_rate::.cpu.data     0.057975                       # miss rate for overall accesses
system.cpu.dcache.overall_miss_rate::total     0.057975                       # miss rate for overall accesses
system.cpu.dcache.overall_misses::.cpu.data      2766511                       # number of overall misses
system.cpu.dcache.overall_misses::total       2766511                       # number of overall misses
system.cpu.dcache.overall_mshr_hits::.cpu.data      1374584                       # number of overall MSHR hits
system.cpu.dcache.overall_mshr_hits::total      1374584                       # number of overall MSHR hits
system.cpu.dcache.overall_mshr_miss_latency::.cpu.data  69716349947                       # number of overall MSHR miss cycles
system.cpu.dcache.overall_mshr_miss_latency::total  69716349947                       # number of overall MSHR miss cycles
system.cpu.dcache.overall_mshr_miss_rate::.cpu.data     0.029169                       # mshr miss rate for overall accesses
system.cpu.dcache.overall_mshr_miss_rate::total     0.029169                       # mshr miss rate for overall accesses
system.cpu.dcache.overall_mshr_misses::.cpu.data      1391927                       # number of overall MSHR misses
system.cpu.dcache.overall_mshr_misses::total      1391927                       # number of overall MSHR misses
system.cpu.dcache.pwrStateResidencyTicks::UNDEFINED 180234075000                       # Cumulative time (in ticks) in various power states
system.cpu.dcache.replacements                1388315                       # number of replacements
system.cpu.dcache.tags.age_task_id_blocks_1024::0           27                       # Occupied blocks per task id
system.cpu.dcache.tags.age_task_id_blocks_1024::1          133                       # Occupied blocks per task id
system.cpu.dcache.tags.age_task_id_blocks_1024::2          861                       # Occupied blocks per task id
system.cpu.dcache.tags.age_task_id_blocks_1024::3            3                       # Occupied blocks per task id
system.cpu.dcache.tags.avg_refs             33.357506                       # Average number of references to valid blocks.
system.cpu.dcache.tags.data_accesses         96827427                       # Number of data accesses
system.cpu.dcache.tags.occ_blocks::.cpu.data  1023.547284                       # Average occupied blocks per requestor
system.cpu.dcache.tags.occ_percent::.cpu.data     0.999558                       # Average percentage of cache occupancy
system.cpu.dcache.tags.occ_percent::total     0.999558                       # Average percentage of cache occupancy
system.cpu.dcache.tags.occ_task_id_blocks::1024         1024                       # Occupied blocks per task id
system.cpu.dcache.tags.occ_task_id_percent::1024            1                       # Percentage of cache occupancy per task id
system.cpu.dcache.tags.pwrStateResidencyTicks::UNDEFINED 180234075000                       # Cumulative time (in ticks) in various power states
system.cpu.dcache.tags.sampled_refs           1389339                       # Sample count of references to valid blocks.
system.cpu.dcache.tags.tag_accesses          96827427                       # Number of tag accesses
system.cpu.dcache.tags.tagsinuse          1023.547284                       # Cycle average of tags in use
system.cpu.dcache.tags.total_refs            46344884                       # Total number of references to valid blocks.
system.cpu.dcache.tags.warmup_cycle            240000                       # Cycle when the warmup percentage was hit.
system.cpu.dcache.writebacks::.writebacks       458676                       # number of writebacks
system.cpu.dcache.writebacks::total            458676                       # number of writebacks
system.cpu.decode.BlockedCycles              41615379                       # Number of cycles decode is blocked
system.cpu.decode.DecodedInsts              364125814                       # Number of instructions handled by decode
system.cpu.decode.IdleCycles                 65867669                       # Number of cycles decode is idle
system.cpu.decode.RunCycles                  46630273                       # Number of cycles decode is running
system.cpu.decode.SquashCycles                5025888                       # Number of cycles decode is squashing
system.cpu.decode.UnblockCycles               5631414                       # Number of cycles decode is unblocking
system.cpu.dtb.rdAccesses                    39066409                       # TLB accesses on read requests
system.cpu.dtb.rdMisses                       1091972                       # TLB misses on read requests
system.cpu.dtb.walker.pwrStateResidencyTicks::UNDEFINED 180234075000                       # Cumulative time (in ticks) in various power states
system.cpu.dtb.wrAccesses                    14615335                       # TLB accesses on write requests
system.cpu.dtb.wrMisses                        114294                       # TLB misses on write requests
system.cpu.dtb_walker_cache.avg_blocked_cycles::no_mshrs          nan                       # average number of cycles each access was blocked
system.cpu.dtb_walker_cache.avg_blocked_cycles::no_targets          nan                       # average number of cycles each access was blocked
system.cpu.dtb_walker_cache.blocked::no_mshrs            0                       # number of cycles access was blocked
system.cpu.dtb_walker_cache.blocked::no_targets            0                       # number of cycles access was blocked
system.cpu.dtb_walker_cache.blocked_cycles::no_mshrs            0                       # number of cycles access was blocked
system.cpu.dtb_walker_cache.blocked_cycles::no_targets            0                       # number of cycles access was blocked
system.cpu.dtb_walker_cache.pwrStateResidencyTicks::UNDEFINED 180234075000                       # Cumulative time (in ticks) in various power states
system.cpu.dtb_walker_cache.replacements            0                       # number of replacements
system.cpu.dtb_walker_cache.tags.avg_refs          nan                       # Average number of references to valid blocks.
system.cpu.dtb_walker_cache.tags.data_accesses            0                       # Number of data accesses
system.cpu.dtb_walker_cache.tags.pwrStateResidencyTicks::UNDEFINED 180234075000                       # Cumulative time (in ticks) in various power states
system.cpu.dtb_walker_cache.tags.sampled_refs            0                       # Sample count of references to valid blocks.
system.cpu.dtb_walker_cache.tags.tag_accesses            0                       # Number of tag accesses
system.cpu.dtb_walker_cache.tags.tagsinuse            0                       # Cycle average of tags in use
system.cpu.dtb_walker_cache.tags.total_refs            0                       # Total number of references to valid blocks.
system.cpu.dtb_walker_cache.tags.warmup_cycle            0                       # Cycle when the warmup percentage was hit.
system.cpu.fetch.Branches                    47276186                       # Number of branches that fetch encountered
system.cpu.fetch.CacheLines                  24740835                       # Number of cache lines fetched
system.cpu.fetch.Cycles                      86466255                       # Number of cycles fetch has run and was not squashing or blocked
system.cpu.fetch.IcacheSquashes               2607418                       # Number of outstanding Icache misses that were squashed
system.cpu.fetch.IcacheWaitRetryStallCycles         3268                       # Number of stall cycles due to full MSHR
system.cpu.fetch.Insts                      196794044                       # Number of instructions fetch has processed
system.cpu.fetch.MiscStallCycles                30956                       # Number of cycles fetch has spent waiting on interrupts, or bad addresses, or out of MSHRs
system.cpu.fetch.PendingQuiesceStallCycles          155                       # Number of stall cycles due to pending quiesce instructions
system.cpu.fetch.PendingTrapStallCycles        184878                       # Number of stall cycles due to pending traps
system.cpu.fetch.SquashCycles                10051776                       # Number of cycles fetch has spent squashing
system.cpu.fetch.TlbCycles                         20                       # Number of cycles fetch has spent waiting for tlb
system.cpu.fetch.branchRate                  0.262304                       # Number of branch fetches per cycle
system.cpu.fetch.icacheStallCycles           73059203                       # Number of cycles fetch is stalled on an Icache miss
system.cpu.fetch.predictedBranches           16794126                       # Number of branches that fetch has predicted taken
system.cpu.fetch.rate                        1.091880                       # Number of inst fetches per cycle
system.cpu.fetch.rateDist::samples          164770623                       # Number of instructions fetched each cycle (Total)
system.cpu.fetch.rateDist::mean              2.352211                       # Number of instructions fetched each cycle (Total)
system.cpu.fetch.rateDist::stdev             3.412372                       # Number of instructions fetched each cycle (Total)
system.cpu.fetch.rateDist::underflows               0      0.00%      0.00% # Number of instructions fetched each cycle (Total)
system.cpu.fetch.rateDist::0                105565697     64.07%     64.07% # Number of instructions fetched each cycle (Total)
system.cpu.fetch.rateDist::1                  2937158      1.78%     65.85% # Number of instructions fetched each cycle (Total)
system.cpu.fetch.rateDist::2                  2941874      1.79%     67.64% # Number of instructions fetched each cycle (Total)
system.cpu.fetch.rateDist::3                  2664473      1.62%     69.25% # Number of instructions fetched each cycle (Total)
system.cpu.fetch.rateDist::4                  3350909      2.03%     71.29% # Number of instructions fetched each cycle (Total)
system.cpu.fetch.rateDist::5                  3490849      2.12%     73.41% # Number of instructions fetched each cycle (Total)
system.cpu.fetch.rateDist::6                  3038935      1.84%     75.25% # Number of instructions fetched each cycle (Total)
system.cpu.fetch.rateDist::7                  4576299      2.78%     78.03% # Number of instructions fetched each cycle (Total)
system.cpu.fetch.rateDist::8                 36204429     21.97%    100.00% # Number of instructions fetched each cycle (Total)
system.cpu.fetch.rateDist::overflows                0      0.00%    100.00% # Number of instructions fetched each cycle (Total)
system.cpu.fetch.rateDist::min_value                0                       # Number of instructions fetched each cycle (Total)
system.cpu.fetch.rateDist::max_value                8                       # Number of instructions fetched each cycle (Total)
system.cpu.fetch.rateDist::total            164770623                       # Number of instructions fetched each cycle (Total)
system.cpu.fp_regfile_reads                    226992                       # number of floating regfile reads
system.cpu.fp_regfile_writes                    98307                       # number of floating regfile writes
system.cpu.icache.ReadReq_accesses::.cpu.inst     24740802                       # number of ReadReq accesses(hits+misses)
system.cpu.icache.ReadReq_accesses::total     24740802                       # number of ReadReq accesses(hits+misses)
system.cpu.icache.ReadReq_avg_miss_latency::.cpu.inst 28499.892313                       # average ReadReq miss latency
system.cpu.icache.ReadReq_avg_miss_latency::total 28499.892313                       # average ReadReq miss latency
system.cpu.icache.ReadReq_avg_mshr_miss_latency::.cpu.inst 27654.252906                       # average ReadReq mshr miss latency
system.cpu.icache.ReadReq_avg_mshr_miss_latency::total 27654.252906                       # average ReadReq mshr miss latency
system.cpu.icache.ReadReq_hits::.cpu.inst     20866872                       # number of ReadReq hits
system.cpu.icache.ReadReq_hits::total        20866872                       # number of ReadReq hits
system.cpu.icache.ReadReq_miss_latency::.cpu.inst 110406587830                       # number of ReadReq miss cycles
system.cpu.icache.ReadReq_miss_latency::total 110406587830                       # number of ReadReq miss cycles
system.cpu.icache.ReadReq_miss_rate::.cpu.inst     0.156581                       # miss rate for ReadReq accesses
system.cpu.icache.ReadReq_miss_rate::total     0.156581                       # miss rate for ReadReq accesses
system.cpu.icache.ReadReq_misses::.cpu.inst      3873930                       # number of ReadReq misses
system.cpu.icache.ReadReq_misses::total       3873930                       # number of ReadReq misses
system.cpu.icache.ReadReq_mshr_hits::.cpu.inst       390551                       # number of ReadReq MSHR hits
system.cpu.icache.ReadReq_mshr_hits::total       390551                       # number of ReadReq MSHR hits
system.cpu.icache.ReadReq_mshr_miss_latency::.cpu.inst  96330243834                       # number of ReadReq MSHR miss cycles
system.cpu.icache.ReadReq_mshr_miss_latency::total  96330243834                       # number of ReadReq MSHR miss cycles
system.cpu.icache.ReadReq_mshr_miss_rate::.cpu.inst     0.140795                       # mshr miss rate for ReadReq accesses
system.cpu.icache.ReadReq_mshr_miss_rate::total     0.140795                       # mshr miss rate for ReadReq accesses
system.cpu.icache.ReadReq_mshr_misses::.cpu.inst      3483379                       # number of ReadReq MSHR misses
system.cpu.icache.ReadReq_mshr_misses::total      3483379                       # number of ReadReq MSHR misses
system.cpu.icache.avg_blocked_cycles::no_mshrs     8.827586                       # average number of cycles each access was blocked
system.cpu.icache.avg_blocked_cycles::no_targets          nan                       # average number of cycles each access was blocked
system.cpu.icache.blocked::no_mshrs              5220                       # number of cycles access was blocked
system.cpu.icache.blocked::no_targets               0                       # number of cycles access was blocked
system.cpu.icache.blocked_cycles::no_mshrs        46080                       # number of cycles access was blocked
system.cpu.icache.blocked_cycles::no_targets            0                       # number of cycles access was blocked
system.cpu.icache.demand_accesses::.cpu.inst     24740802                       # number of demand (read+write) accesses
system.cpu.icache.demand_accesses::total     24740802                       # number of demand (read+write) accesses
system.cpu.icache.demand_avg_miss_latency::.cpu.inst 28499.892313                       # average overall miss latency
system.cpu.icache.demand_avg_miss_latency::total 28499.892313                       # average overall miss latency
system.cpu.icache.demand_avg_mshr_miss_latency::.cpu.inst 27654.252906                       # average overall mshr miss latency
system.cpu.icache.demand_avg_mshr_miss_latency::total 27654.252906                       # average overall mshr miss latency
system.cpu.icache.demand_hits::.cpu.inst     20866872                       # number of demand (read+write) hits
system.cpu.icache.demand_hits::total         20866872                       # number of demand (read+write) hits
system.cpu.icache.demand_miss_latency::.cpu.inst 110406587830                       # number of demand (read+write) miss cycles
system.cpu.icache.demand_miss_latency::total 110406587830                       # number of demand (read+write) miss cycles
system.cpu.icache.demand_miss_rate::.cpu.inst     0.156581                       # miss rate for demand accesses
system.cpu.icache.demand_miss_rate::total     0.156581                       # miss rate for demand accesses
system.cpu.icache.demand_misses::.cpu.inst      3873930                       # number of demand (read+write) misses
system.cpu.icache.demand_misses::total        3873930                       # number of demand (read+write) misses
system.cpu.icache.demand_mshr_hits::.cpu.inst       390551                       # number of demand (read+write) MSHR hits
system.cpu.icache.demand_mshr_hits::total       390551                       # number of demand (read+write) MSHR hits
system.cpu.icache.demand_mshr_miss_latency::.cpu.inst  96330243834                       # number of demand (read+write) MSHR miss cycles
system.cpu.icache.demand_mshr_miss_latency::total  96330243834                       # number of demand (read+write) MSHR miss cycles
system.cpu.icache.demand_mshr_miss_rate::.cpu.inst     0.140795                       # mshr miss rate for demand accesses
system.cpu.icache.demand_mshr_miss_rate::total     0.140795                       # mshr miss rate for demand accesses
system.cpu.icache.demand_mshr_misses::.cpu.inst      3483379                       # number of demand (read+write) MSHR misses
system.cpu.icache.demand_mshr_misses::total      3483379                       # number of demand (read+write) MSHR misses
system.cpu.icache.overall_accesses::.cpu.inst     24740802                       # number of overall (read+write) accesses
system.cpu.icache.overall_accesses::total     24740802                       # number of overall (read+write) accesses
system.cpu.icache.overall_avg_miss_latency::.cpu.inst 28499.892313                       # average overall miss latency
system.cpu.icache.overall_avg_miss_latency::total 28499.892313                       # average overall miss latency
system.cpu.icache.overall_avg_mshr_miss_latency::.cpu.inst 27654.252906                       # average overall mshr miss latency
system.cpu.icache.overall_avg_mshr_miss_latency::total 27654.252906                       # average overall mshr miss latency
system.cpu.icache.overall_hits::.cpu.inst     20866872                       # number of overall hits
system.cpu.icache.overall_hits::total        20866872                       # number of overall hits
system.cpu.icache.overall_miss_latency::.cpu.inst 110406587830                       # number of overall miss cycles
system.cpu.icache.overall_miss_latency::total 110406587830                       # number of overall miss cycles
system.cpu.icache.overall_miss_rate::.cpu.inst     0.156581                       # miss rate for overall accesses
system.cpu.icache.overall_miss_rate::total     0.156581                       # miss rate for overall accesses
system.cpu.icache.overall_misses::.cpu.inst      3873930                       # number of overall misses
system.cpu.icache.overall_misses::total       3873930                       # number of overall misses
system.cpu.icache.overall_mshr_hits::.cpu.inst       390551                       # number of overall MSHR hits
system.cpu.icache.overall_mshr_hits::total       390551                       # number of overall MSHR hits
system.cpu.icache.overall_mshr_miss_latency::.cpu.inst  96330243834                       # number of overall MSHR miss cycles
system.cpu.icache.overall_mshr_miss_latency::total  96330243834                       # number of overall MSHR miss cycles
system.cpu.icache.overall_mshr_miss_rate::.cpu.inst     0.140795                       # mshr miss rate for overall accesses
system.cpu.icache.overall_mshr_miss_rate::total     0.140795                       # mshr miss rate for overall accesses
system.cpu.icache.overall_mshr_misses::.cpu.inst      3483379                       # number of overall MSHR misses
system.cpu.icache.overall_mshr_misses::total      3483379                       # number of overall MSHR misses
system.cpu.icache.pwrStateResidencyTicks::UNDEFINED 180234075000                       # Cumulative time (in ticks) in various power states
system.cpu.icache.replacements                3481815                       # number of replacements
system.cpu.icache.tags.age_task_id_blocks_1024::0          160                       # Occupied blocks per task id
system.cpu.icache.tags.age_task_id_blocks_1024::1           72                       # Occupied blocks per task id
system.cpu.icache.tags.age_task_id_blocks_1024::2           24                       # Occupied blocks per task id
system.cpu.icache.tags.avg_refs              6.990414                       # Average number of references to valid blocks.
system.cpu.icache.tags.data_accesses         52964981                       # Number of data accesses
system.cpu.icache.tags.occ_blocks::.cpu.inst   255.911141                       # Average occupied blocks per requestor
system.cpu.icache.tags.occ_percent::.cpu.inst     0.999653                       # Average percentage of cache occupancy
system.cpu.icache.tags.occ_percent::total     0.999653                       # Average percentage of cache occupancy
system.cpu.icache.tags.occ_task_id_blocks::1024          256                       # Occupied blocks per task id
system.cpu.icache.tags.occ_task_id_percent::1024            1                       # Percentage of cache occupancy per task id
system.cpu.icache.tags.pwrStateResidencyTicks::UNDEFINED 180234075000                       # Cumulative time (in ticks) in various power states
system.cpu.icache.tags.sampled_refs           3483377                       # Sample count of references to valid blocks.
system.cpu.icache.tags.tag_accesses          52964981                       # Number of tag accesses
system.cpu.icache.tags.tagsinuse           255.911141                       # Cycle average of tags in use
system.cpu.icache.tags.total_refs            24350249                       # Total number of references to valid blocks.
system.cpu.icache.tags.warmup_cycle            108000                       # Cycle when the warmup percentage was hit.
system.cpu.icache.writebacks::.writebacks      3481815                       # number of writebacks
system.cpu.icache.writebacks::total           3481815                       # number of writebacks
system.cpu.idleCycles                        15463453                       # Total number of cycles that the CPU has spent unscheduled due to idling
system.cpu.iew.branchMispredicts              6361573                       # Number of branch mispredicts detected at execute
system.cpu.iew.exec_branches                 29300722                       # Number of branches executed
system.cpu.iew.exec_nop                             0                       # number of nop insts executed
system.cpu.iew.exec_rate                     1.478001                       # Inst execution rate
system.cpu.iew.exec_refs                     53678672                       # number of memory reference insts executed
system.cpu.iew.exec_stores                   14601372                       # Number of stores executed
system.cpu.iew.exec_swp                             0                       # number of swp insts executed
system.cpu.iew.iewBlockCycles                25174460                       # Number of cycles IEW is blocking
system.cpu.iew.iewDispLoadInsts              48860788                       # Number of dispatched load instructions
system.cpu.iew.iewDispNonSpecInsts             117433                       # Number of dispatched non-speculative instructions
system.cpu.iew.iewDispSquashedInsts            360072                       # Number of squashed instructions skipped by dispatch
system.cpu.iew.iewDispStoreInsts             18295459                       # Number of dispatched store instructions
system.cpu.iew.iewDispatchedInsts           316420423                       # Number of instructions dispatched to IQ
system.cpu.iew.iewExecLoadInsts              39077300                       # Number of load instructions executed
system.cpu.iew.iewExecSquashedInsts           9405921                       # Number of squashed instructions skipped in execute
system.cpu.iew.iewExecutedInsts             266386090                       # Number of executed instructions
system.cpu.iew.iewIQFullEvents                 251656                       # Number of times the IQ has become full, causing a stall
system.cpu.iew.iewIdleCycles                        0                       # Number of cycles IEW is idle
system.cpu.iew.iewLSQFullEvents                508405                       # Number of times the LSQ has become full, causing a stall
system.cpu.iew.iewSquashCycles                5025888                       # Number of cycles IEW is squashing
system.cpu.iew.iewUnblockCycles                915536                       # Number of cycles IEW is unblocking
system.cpu.iew.lsq.thread0.blockedLoads             0                       # Number of blocked loads due to partial load-store forwarding
system.cpu.iew.lsq.thread0.cacheBlocked         18859                       # Number of times an access to memory failed due to the cache being blocked
system.cpu.iew.lsq.thread0.forwLoads          2342084                       # Number of loads that had data forwarded from stores
system.cpu.iew.lsq.thread0.ignoredResponses        61486                       # Number of memory responses ignored because the instruction is squashed
system.cpu.iew.lsq.thread0.invAddrLoads             0                       # Number of loads ignored due to an invalid address
system.cpu.iew.lsq.thread0.invAddrSwpfs             0                       # Number of software prefetches ignored due to an invalid address
system.cpu.iew.lsq.thread0.memOrderViolation         8647                       # Number of memory ordering violations
system.cpu.iew.lsq.thread0.rescheduledLoads         5609                       # Number of loads that were rescheduled
system.cpu.iew.lsq.thread0.squashedLoads     20474619                       # Number of loads squashed
system.cpu.iew.lsq.thread0.squashedStores      6736135                       # Number of stores squashed
system.cpu.iew.memOrderViolationEvents           8647                       # Number of memory order violations
system.cpu.iew.predictedNotTakenIncorrect      4742722                       # Number of branches that were predicted not taken incorrectly
system.cpu.iew.predictedTakenIncorrect        1618851                       # Number of branches that were predicted taken incorrectly
system.cpu.iew.wb_consumers                 301003855                       # num instructions consuming a value
system.cpu.iew.wb_count                     261182037                       # cumulative count of insts written-back
system.cpu.iew.wb_fanout                     0.630911                       # average fanout of values written-back
system.cpu.iew.wb_producers                 189906589                       # num instructions producing a value
system.cpu.iew.wb_rate                       1.449127                       # insts written-back per cycle
system.cpu.iew.wb_sent                      263457271                       # cumulative count of insts sent to commit
system.cpu.int_regfile_reads                384604817                       # number of integer regfile reads
system.cpu.int_regfile_writes               218312438                       # number of integer regfile writes
system.cpu.interrupts.pwrStateResidencyTicks::UNDEFINED 180234075000                       # Cumulative time (in ticks) in various power states
system.cpu.ipc                               0.554834                       # IPC: Instructions Per Cycle
system.cpu.ipc_total                         0.554834                       # IPC: Total IPC of All Threads
system.cpu.iq.FU_type_0::No_OpClass           2287396      0.83%      0.83% # Type of FU issued
system.cpu.iq.FU_type_0::IntAlu             215646214     78.19%     79.02% # Type of FU issued
system.cpu.iq.FU_type_0::IntMult               340510      0.12%     79.14% # Type of FU issued
system.cpu.iq.FU_type_0::IntDiv                703593      0.26%     79.40% # Type of FU issued
system.cpu.iq.FU_type_0::FloatAdd                2633      0.00%     79.40% # Type of FU issued
system.cpu.iq.FU_type_0::FloatCmp                   0      0.00%     79.40% # Type of FU issued
system.cpu.iq.FU_type_0::FloatCvt               11542      0.00%     79.40% # Type of FU issued
system.cpu.iq.FU_type_0::FloatMult                  0      0.00%     79.40% # Type of FU issued
system.cpu.iq.FU_type_0::FloatMultAcc               0      0.00%     79.40% # Type of FU issued
system.cpu.iq.FU_type_0::FloatDiv                   0      0.00%     79.40% # Type of FU issued
system.cpu.iq.FU_type_0::FloatMisc                  0      0.00%     79.40% # Type of FU issued
system.cpu.iq.FU_type_0::FloatSqrt                  0      0.00%     79.40% # Type of FU issued
system.cpu.iq.FU_type_0::SimdAdd                   34      0.00%     79.40% # Type of FU issued
system.cpu.iq.FU_type_0::SimdAddAcc                 0      0.00%     79.40% # Type of FU issued
system.cpu.iq.FU_type_0::SimdAlu                 2730      0.00%     79.41% # Type of FU issued
system.cpu.iq.FU_type_0::SimdCmp                   24      0.00%     79.41% # Type of FU issued
system.cpu.iq.FU_type_0::SimdCvt                 1969      0.00%     79.41% # Type of FU issued
system.cpu.iq.FU_type_0::SimdMisc               41536      0.02%     79.42% # Type of FU issued
system.cpu.iq.FU_type_0::SimdMult                   0      0.00%     79.42% # Type of FU issued
system.cpu.iq.FU_type_0::SimdMultAcc                0      0.00%     79.42% # Type of FU issued
system.cpu.iq.FU_type_0::SimdShift                 31      0.00%     79.42% # Type of FU issued
system.cpu.iq.FU_type_0::SimdShiftAcc               0      0.00%     79.42% # Type of FU issued
system.cpu.iq.FU_type_0::SimdDiv                    0      0.00%     79.42% # Type of FU issued
system.cpu.iq.FU_type_0::SimdSqrt                   0      0.00%     79.42% # Type of FU issued
system.cpu.iq.FU_type_0::SimdFloatAdd              13      0.00%     79.42% # Type of FU issued
system.cpu.iq.FU_type_0::SimdFloatAlu               0      0.00%     79.42% # Type of FU issued
system.cpu.iq.FU_type_0::SimdFloatCmp               0      0.00%     79.42% # Type of FU issued
system.cpu.iq.FU_type_0::SimdFloatCvt           27632      0.01%     79.43% # Type of FU issued
system.cpu.iq.FU_type_0::SimdFloatDiv               2      0.00%     79.43% # Type of FU issued
system.cpu.iq.FU_type_0::SimdFloatMisc              0      0.00%     79.43% # Type of FU issued
system.cpu.iq.FU_type_0::SimdFloatMult          10641      0.00%     79.44% # Type of FU issued
system.cpu.iq.FU_type_0::SimdFloatMultAcc            0      0.00%     79.44% # Type of FU issued
system.cpu.iq.FU_type_0::SimdFloatSqrt              1      0.00%     79.44% # Type of FU issued
system.cpu.iq.FU_type_0::SimdReduceAdd              0      0.00%     79.44% # Type of FU issued
system.cpu.iq.FU_type_0::SimdReduceAlu              0      0.00%     79.44% # Type of FU issued
system.cpu.iq.FU_type_0::SimdReduceCmp              0      0.00%     79.44% # Type of FU issued
system.cpu.iq.FU_type_0::SimdFloatReduceAdd            0      0.00%     79.44% # Type of FU issued
system.cpu.iq.FU_type_0::SimdFloatReduceCmp            0      0.00%     79.44% # Type of FU issued
system.cpu.iq.FU_type_0::SimdAes                    0      0.00%     79.44% # Type of FU issued
system.cpu.iq.FU_type_0::SimdAesMix                 0      0.00%     79.44% # Type of FU issued
system.cpu.iq.FU_type_0::SimdSha1Hash               0      0.00%     79.44% # Type of FU issued
system.cpu.iq.FU_type_0::SimdSha1Hash2              0      0.00%     79.44% # Type of FU issued
system.cpu.iq.FU_type_0::SimdSha256Hash             0      0.00%     79.44% # Type of FU issued
system.cpu.iq.FU_type_0::SimdSha256Hash2            0      0.00%     79.44% # Type of FU issued
system.cpu.iq.FU_type_0::SimdShaSigma2              0      0.00%     79.44% # Type of FU issued
system.cpu.iq.FU_type_0::SimdShaSigma3              0      0.00%     79.44% # Type of FU issued
system.cpu.iq.FU_type_0::SimdPredAlu                0      0.00%     79.44% # Type of FU issued
system.cpu.iq.FU_type_0::MemRead             41164615     14.93%     94.36% # Type of FU issued
system.cpu.iq.FU_type_0::MemWrite            15471793      5.61%     99.97% # Type of FU issued
system.cpu.iq.FU_type_0::FloatMemRead           19911      0.01%     99.98% # Type of FU issued
system.cpu.iq.FU_type_0::FloatMemWrite          59191      0.02%    100.00% # Type of FU issued
system.cpu.iq.FU_type_0::IprAccess                  0      0.00%    100.00% # Type of FU issued
system.cpu.iq.FU_type_0::InstPrefetch               0      0.00%    100.00% # Type of FU issued
system.cpu.iq.FU_type_0::total              275792011                       # Type of FU issued
system.cpu.iq.fp_alu_accesses                  181905                       # Number of floating point alu accesses
system.cpu.iq.fp_inst_queue_reads              362883                       # Number of floating instruction queue reads
system.cpu.iq.fp_inst_queue_wakeup_accesses       175245                       # Number of floating instruction queue wakeup accesses
system.cpu.iq.fp_inst_queue_writes             389015                       # Number of floating instruction queue writes
system.cpu.iq.fu_busy_cnt                     6870065                       # FU busy when requested
system.cpu.iq.fu_busy_rate                   0.024910                       # FU busy rate (busy events/executed inst)
system.cpu.iq.fu_full::No_OpClass                   0      0.00%      0.00% # attempts to use FU when none available
system.cpu.iq.fu_full::IntAlu                 6420410     93.45%     93.45% # attempts to use FU when none available
system.cpu.iq.fu_full::IntMult                      0      0.00%     93.45% # attempts to use FU when none available
system.cpu.iq.fu_full::IntDiv                       0      0.00%     93.45% # attempts to use FU when none available
system.cpu.iq.fu_full::FloatAdd                     0      0.00%     93.45% # attempts to use FU when none available
system.cpu.iq.fu_full::FloatCmp                     0      0.00%     93.45% # attempts to use FU when none available
system.cpu.iq.fu_full::FloatCvt                    53      0.00%     93.46% # attempts to use FU when none available
system.cpu.iq.fu_full::FloatMult                    0      0.00%     93.46% # attempts to use FU when none available
system.cpu.iq.fu_full::FloatMultAcc                 0      0.00%     93.46% # attempts to use FU when none available
system.cpu.iq.fu_full::FloatDiv                     0      0.00%     93.46% # attempts to use FU when none available
system.cpu.iq.fu_full::FloatMisc                    0      0.00%     93.46% # attempts to use FU when none available
system.cpu.iq.fu_full::FloatSqrt                    0      0.00%     93.46% # attempts to use FU when none available
system.cpu.iq.fu_full::SimdAdd                      0      0.00%     93.46% # attempts to use FU when none available
system.cpu.iq.fu_full::SimdAddAcc                   0      0.00%     93.46% # attempts to use FU when none available
system.cpu.iq.fu_full::SimdAlu                    186      0.00%     93.46% # attempts to use FU when none available
system.cpu.iq.fu_full::SimdCmp                      0      0.00%     93.46% # attempts to use FU when none available
system.cpu.iq.fu_full::SimdCvt                     13      0.00%     93.46% # attempts to use FU when none available
system.cpu.iq.fu_full::SimdMisc                     0      0.00%     93.46% # attempts to use FU when none available
system.cpu.iq.fu_full::SimdMult                     0      0.00%     93.46% # attempts to use FU when none available
system.cpu.iq.fu_full::SimdMultAcc                  0      0.00%     93.46% # attempts to use FU when none available
system.cpu.iq.fu_full::SimdShift                    0      0.00%     93.46% # attempts to use FU when none available
system.cpu.iq.fu_full::SimdShiftAcc                 0      0.00%     93.46% # attempts to use FU when none available
system.cpu.iq.fu_full::SimdDiv                      0      0.00%     93.46% # attempts to use FU when none available
system.cpu.iq.fu_full::SimdSqrt                     0      0.00%     93.46% # attempts to use FU when none available
system.cpu.iq.fu_full::SimdFloatAdd                 0      0.00%     93.46% # attempts to use FU when none available
system.cpu.iq.fu_full::SimdFloatAlu                 0      0.00%     93.46% # attempts to use FU when none available
system.cpu.iq.fu_full::SimdFloatCmp                 0      0.00%     93.46% # attempts to use FU when none available
system.cpu.iq.fu_full::SimdFloatCvt                 0      0.00%     93.46% # attempts to use FU when none available
system.cpu.iq.fu_full::SimdFloatDiv                 0      0.00%     93.46% # attempts to use FU when none available
system.cpu.iq.fu_full::SimdFloatMisc                0      0.00%     93.46% # attempts to use FU when none available
system.cpu.iq.fu_full::SimdFloatMult                0      0.00%     93.46% # attempts to use FU when none available
system.cpu.iq.fu_full::SimdFloatMultAcc             0      0.00%     93.46% # attempts to use FU when none available
system.cpu.iq.fu_full::SimdFloatSqrt                0      0.00%     93.46% # attempts to use FU when none available
system.cpu.iq.fu_full::SimdReduceAdd                0      0.00%     93.46% # attempts to use FU when none available
system.cpu.iq.fu_full::SimdReduceAlu                0      0.00%     93.46% # attempts to use FU when none available
system.cpu.iq.fu_full::SimdReduceCmp                0      0.00%     93.46% # attempts to use FU when none available
system.cpu.iq.fu_full::SimdFloatReduceAdd            0      0.00%     93.46% # attempts to use FU when none available
system.cpu.iq.fu_full::SimdFloatReduceCmp            0      0.00%     93.46% # attempts to use FU when none available
system.cpu.iq.fu_full::SimdAes                      0      0.00%     93.46% # attempts to use FU when none available
system.cpu.iq.fu_full::SimdAesMix                   0      0.00%     93.46% # attempts to use FU when none available
system.cpu.iq.fu_full::SimdSha1Hash                 0      0.00%     93.46% # attempts to use FU when none available
system.cpu.iq.fu_full::SimdSha1Hash2                0      0.00%     93.46% # attempts to use FU when none available
system.cpu.iq.fu_full::SimdSha256Hash               0      0.00%     93.46% # attempts to use FU when none available
system.cpu.iq.fu_full::SimdSha256Hash2              0      0.00%     93.46% # attempts to use FU when none available
system.cpu.iq.fu_full::SimdShaSigma2                0      0.00%     93.46% # attempts to use FU when none available
system.cpu.iq.fu_full::SimdShaSigma3                0      0.00%     93.46% # attempts to use FU when none available
system.cpu.iq.fu_full::SimdPredAlu                  0      0.00%     93.46% # attempts to use FU when none available
system.cpu.iq.fu_full::MemRead                 269917      3.93%     97.39% # attempts to use FU when none available
system.cpu.iq.fu_full::MemWrite                178499      2.60%     99.99% # attempts to use FU when none available
system.cpu.iq.fu_full::FloatMemRead               599      0.01%     99.99% # attempts to use FU when none available
system.cpu.iq.fu_full::FloatMemWrite              388      0.01%    100.00% # attempts to use FU when none available
system.cpu.iq.fu_full::IprAccess                    0      0.00%    100.00% # attempts to use FU when none available
system.cpu.iq.fu_full::InstPrefetch                 0      0.00%    100.00% # attempts to use FU when none available
system.cpu.iq.int_alu_accesses              280192775                       # Number of integer alu accesses
system.cpu.iq.int_inst_queue_reads          724018307                       # Number of integer instruction queue reads
system.cpu.iq.int_inst_queue_wakeup_accesses    261006792                       # Number of integer instruction queue wakeup accesses
system.cpu.iq.int_inst_queue_writes         435497794                       # Number of integer instruction queue writes
system.cpu.iq.iqInstsAdded                  316070925                       # Number of instructions added to the IQ (excludes non-spec)
system.cpu.iq.iqInstsIssued                 275792011                       # Number of instructions issued
system.cpu.iq.iqNonSpecInstsAdded              349498                       # Number of non-speculative instructions added to the IQ
system.cpu.iq.iqSquashedInstsExamined       119458641                       # Number of squashed instructions iterated over during squash; mainly for profiling
system.cpu.iq.iqSquashedInstsIssued           1156480                       # Number of squashed instructions issued
system.cpu.iq.iqSquashedNonSpecRemoved         338450                       # Number of squashed non-spec instructions that were removed
system.cpu.iq.iqSquashedOperandsExamined    170192271                       # Number of squashed operands that are examined and possibly removed from graph
system.cpu.iq.issued_per_cycle::samples     164770623                       # Number of insts issued each cycle
system.cpu.iq.issued_per_cycle::mean         1.673794                       # Number of insts issued each cycle
system.cpu.iq.issued_per_cycle::stdev        2.364868                       # Number of insts issued each cycle
system.cpu.iq.issued_per_cycle::underflows            0      0.00%      0.00% # Number of insts issued each cycle
system.cpu.iq.issued_per_cycle::0            92751152     56.29%     56.29% # Number of insts issued each cycle
system.cpu.iq.issued_per_cycle::1            12729182      7.73%     64.02% # Number of insts issued each cycle
system.cpu.iq.issued_per_cycle::2            11750617      7.13%     71.15% # Number of insts issued each cycle
system.cpu.iq.issued_per_cycle::3            10468990      6.35%     77.50% # Number of insts issued each cycle
system.cpu.iq.issued_per_cycle::4             9528664      5.78%     83.28% # Number of insts issued each cycle
system.cpu.iq.issued_per_cycle::5             8463026      5.14%     88.42% # Number of insts issued each cycle
system.cpu.iq.issued_per_cycle::6             8839605      5.36%     93.79% # Number of insts issued each cycle
system.cpu.iq.issued_per_cycle::7             7227887      4.39%     98.17% # Number of insts issued each cycle
system.cpu.iq.issued_per_cycle::8             3011500      1.83%    100.00% # Number of insts issued each cycle
system.cpu.iq.issued_per_cycle::overflows            0      0.00%    100.00% # Number of insts issued each cycle
system.cpu.iq.issued_per_cycle::min_value            0                       # Number of insts issued each cycle
system.cpu.iq.issued_per_cycle::max_value            8                       # Number of insts issued each cycle
system.cpu.iq.issued_per_cycle::total       164770623                       # Number of insts issued each cycle
system.cpu.iq.rate                           1.530188                       # Inst issue rate
system.cpu.iq.vec_alu_accesses                      0                       # Number of vector alu accesses
system.cpu.iq.vec_inst_queue_reads                  0                       # Number of vector instruction queue reads
system.cpu.iq.vec_inst_queue_wakeup_accesses            0                       # Number of vector instruction queue wakeup accesses
system.cpu.iq.vec_inst_queue_writes                 0                       # Number of vector instruction queue writes
system.cpu.itb.rdAccesses                           0                       # TLB accesses on read requests
system.cpu.itb.rdMisses                             0                       # TLB misses on read requests
system.cpu.itb.walker.pwrStateResidencyTicks::UNDEFINED 180234075000                       # Cumulative time (in ticks) in various power states
system.cpu.itb.wrAccesses                    24774146                       # TLB accesses on write requests
system.cpu.itb.wrMisses                        387242                       # TLB misses on write requests
system.cpu.itb_walker_cache.avg_blocked_cycles::no_mshrs          nan                       # average number of cycles each access was blocked
system.cpu.itb_walker_cache.avg_blocked_cycles::no_targets          nan                       # average number of cycles each access was blocked
system.cpu.itb_walker_cache.blocked::no_mshrs            0                       # number of cycles access was blocked
system.cpu.itb_walker_cache.blocked::no_targets            0                       # number of cycles access was blocked
system.cpu.itb_walker_cache.blocked_cycles::no_mshrs            0                       # number of cycles access was blocked
system.cpu.itb_walker_cache.blocked_cycles::no_targets            0                       # number of cycles access was blocked
system.cpu.itb_walker_cache.pwrStateResidencyTicks::UNDEFINED 180234075000                       # Cumulative time (in ticks) in various power states
system.cpu.itb_walker_cache.replacements            0                       # number of replacements
system.cpu.itb_walker_cache.tags.avg_refs          nan                       # Average number of references to valid blocks.
system.cpu.itb_walker_cache.tags.data_accesses            0                       # Number of data accesses
system.cpu.itb_walker_cache.tags.pwrStateResidencyTicks::UNDEFINED 180234075000                       # Cumulative time (in ticks) in various power states
system.cpu.itb_walker_cache.tags.sampled_refs            0                       # Sample count of references to valid blocks.
system.cpu.itb_walker_cache.tags.tag_accesses            0                       # Number of tag accesses
system.cpu.itb_walker_cache.tags.tagsinuse            0                       # Cycle average of tags in use
system.cpu.itb_walker_cache.tags.total_refs            0                       # Total number of references to valid blocks.
system.cpu.itb_walker_cache.tags.warmup_cycle            0                       # Cycle when the warmup percentage was hit.
system.cpu.memDep0.conflictingLoads           1154653                       # Number of conflicting loads.
system.cpu.memDep0.conflictingStores           761789                       # Number of conflicting stores.
system.cpu.memDep0.insertedLoads             48860788                       # Number of loads inserted to the mem dependence unit.
system.cpu.memDep0.insertedStores            18295459                       # Number of stores inserted to the mem dependence unit.
system.cpu.misc_regfile_reads               116700591                       # number of misc regfile reads
system.cpu.misc_regfile_writes                    765                       # number of misc regfile writes
system.cpu.numCycles                        180234076                       # number of cpu cycles simulated
system.cpu.numWorkItemsCompleted                    0                       # number of work items this cpu completed
system.cpu.numWorkItemsStarted                      0                       # number of work items this cpu started
system.cpu.pwrStateResidencyTicks::ON    180234075000                       # Cumulative time (in ticks) in various power states
system.cpu.rename.BlockCycles                32095370                       # Number of cycles rename is blocking
system.cpu.rename.CommittedMaps             232423987                       # Number of HB maps that are committed
system.cpu.rename.FullRegisterEvents               22                       # Number of times there has been no free registers
system.cpu.rename.IQFullEvents                5099431                       # Number of times rename has blocked due to IQ full
system.cpu.rename.IdleCycles                 68934909                       # Number of cycles rename is idle
system.cpu.rename.LQFullEvents                1099885                       # Number of times rename has blocked due to LQ full
system.cpu.rename.ROBFullEvents                421189                       # Number of times rename has blocked due to ROB full
system.cpu.rename.RenameLookups             868050040                       # Number of register rename lookups that rename has made
system.cpu.rename.RenamedInsts              348538803                       # Number of instructions processed by rename
system.cpu.rename.RenamedOperands           396417663                       # Number of destination operands rename has renamed
system.cpu.rename.RunCycles                  48598826                       # Number of cycles rename is running
system.cpu.rename.SQFullEvents                2640200                       # Number of times rename has blocked due to SQ full
system.cpu.rename.SquashCycles                5025888                       # Number of cycles rename is squashing
system.cpu.rename.UnblockCycles              10095275                       # Number of cycles rename is unblocking
system.cpu.rename.UndoneMaps                163993673                       # Number of HB maps that are undone due to squashing
system.cpu.rename.fp_rename_lookups            377799                       # Number of floating rename lookups
system.cpu.rename.int_rename_lookups        529790629                       # Number of integer rename lookups
system.cpu.rename.serializeStallCycles          20355                       # count of cycles rename stalled for serializing inst
system.cpu.rename.serializingInsts               2151                       # count of serializing insts renamed
system.cpu.rename.skidInsts                  18615731                       # count of insts added to the skid buffer
system.cpu.rename.tempSerializingInsts           2096                       # count of temporary serializing insts renamed
system.cpu.rob.rob_reads                    450430994                       # The number of ROB reads
system.cpu.rob.rob_writes                   652652531                       # The number of ROB writes
system.cpu.timesIdled                         1409035                       # Number of times that the entire CPU went into an idle state and unscheduled itself
system.cpu.workload.numSyscalls                   113                       # Number of system calls
system.cpu_clk_domain.clock                      1000                       # Clock period in ticks
system.cpu_voltage_domain.voltage                   1                       # Voltage in Volts
system.l2.CleanEvict_mshr_miss_rate::.writebacks          inf                       # mshr miss rate for CleanEvict accesses
system.l2.CleanEvict_mshr_miss_rate::total          inf                       # mshr miss rate for CleanEvict accesses
system.l2.CleanEvict_mshr_misses::.writebacks        98202                       # number of CleanEvict MSHR misses
system.l2.CleanEvict_mshr_misses::total         98202                       # number of CleanEvict MSHR misses
system.l2.HardPFReq_avg_mshr_miss_latency::.l2.prefetcher 76901.039686                       # average HardPFReq mshr miss latency
system.l2.HardPFReq_avg_mshr_miss_latency::total 76901.039686                       # average HardPFReq mshr miss latency
system.l2.HardPFReq_mshr_miss_latency::.l2.prefetcher  53925316059                       # number of HardPFReq MSHR miss cycles
system.l2.HardPFReq_mshr_miss_latency::total  53925316059                       # number of HardPFReq MSHR miss cycles
system.l2.HardPFReq_mshr_miss_rate::.l2.prefetcher          inf                       # mshr miss rate for HardPFReq accesses
system.l2.HardPFReq_mshr_miss_rate::total          inf                       # mshr miss rate for HardPFReq accesses
system.l2.HardPFReq_mshr_misses::.l2.prefetcher       701230                       # number of HardPFReq MSHR misses
system.l2.HardPFReq_mshr_misses::total         701230                       # number of HardPFReq MSHR misses
system.l2.ReadCleanReq_accesses::.cpu.inst      3479145                       # number of ReadCleanReq accesses(hits+misses)
system.l2.ReadCleanReq_accesses::total        3479145                       # number of ReadCleanReq accesses(hits+misses)
system.l2.ReadCleanReq_avg_miss_latency::.cpu.inst 112074.076598                       # average ReadCleanReq miss latency
system.l2.ReadCleanReq_avg_miss_latency::total 112074.076598                       # average ReadCleanReq miss latency
system.l2.ReadCleanReq_avg_mshr_miss_latency::.cpu.inst 92831.855446                       # average ReadCleanReq mshr miss latency
system.l2.ReadCleanReq_avg_mshr_miss_latency::total 92831.855446                       # average ReadCleanReq mshr miss latency
system.l2.ReadCleanReq_hits::.cpu.inst        3352614                       # number of ReadCleanReq hits
system.l2.ReadCleanReq_hits::total            3352614                       # number of ReadCleanReq hits
system.l2.ReadCleanReq_miss_latency::.cpu.inst  14180844986                       # number of ReadCleanReq miss cycles
system.l2.ReadCleanReq_miss_latency::total  14180844986                       # number of ReadCleanReq miss cycles
system.l2.ReadCleanReq_miss_rate::.cpu.inst     0.036368                       # miss rate for ReadCleanReq accesses
system.l2.ReadCleanReq_miss_rate::total      0.036368                       # miss rate for ReadCleanReq accesses
system.l2.ReadCleanReq_misses::.cpu.inst       126531                       # number of ReadCleanReq misses
system.l2.ReadCleanReq_misses::total           126531                       # number of ReadCleanReq misses
system.l2.ReadCleanReq_mshr_hits::.cpu.inst         2584                       # number of ReadCleanReq MSHR hits
system.l2.ReadCleanReq_mshr_hits::total          2584                       # number of ReadCleanReq MSHR hits
system.l2.ReadCleanReq_mshr_miss_latency::.cpu.inst  11506229987                       # number of ReadCleanReq MSHR miss cycles
system.l2.ReadCleanReq_mshr_miss_latency::total  11506229987                       # number of ReadCleanReq MSHR miss cycles
system.l2.ReadCleanReq_mshr_miss_rate::.cpu.inst     0.035626                       # mshr miss rate for ReadCleanReq accesses
system.l2.ReadCleanReq_mshr_miss_rate::total     0.035626                       # mshr miss rate for ReadCleanReq accesses
system.l2.ReadCleanReq_mshr_misses::.cpu.inst       123947                       # number of ReadCleanReq MSHR misses
system.l2.ReadCleanReq_mshr_misses::total       123947                       # number of ReadCleanReq MSHR misses
system.l2.ReadExReq_accesses::.cpu.data        174411                       # number of ReadExReq accesses(hits+misses)
system.l2.ReadExReq_accesses::total            174411                       # number of ReadExReq accesses(hits+misses)
system.l2.ReadExReq_avg_miss_latency::.cpu.data 112884.013994                       # average ReadExReq miss latency
system.l2.ReadExReq_avg_miss_latency::total 112884.013994                       # average ReadExReq miss latency
system.l2.ReadExReq_avg_mshr_miss_latency::.cpu.data 93007.087375                       # average ReadExReq mshr miss latency
system.l2.ReadExReq_avg_mshr_miss_latency::total 93007.087375                       # average ReadExReq mshr miss latency
system.l2.ReadExReq_hits::.cpu.data            146399                       # number of ReadExReq hits
system.l2.ReadExReq_hits::total                146399                       # number of ReadExReq hits
system.l2.ReadExReq_miss_latency::.cpu.data   3162107000                       # number of ReadExReq miss cycles
system.l2.ReadExReq_miss_latency::total    3162107000                       # number of ReadExReq miss cycles
system.l2.ReadExReq_miss_rate::.cpu.data     0.160609                       # miss rate for ReadExReq accesses
system.l2.ReadExReq_miss_rate::total         0.160609                       # miss rate for ReadExReq accesses
system.l2.ReadExReq_misses::.cpu.data           28012                       # number of ReadExReq misses
system.l2.ReadExReq_misses::total               28012                       # number of ReadExReq misses
system.l2.ReadExReq_mshr_hits::.cpu.data           75                       # number of ReadExReq MSHR hits
system.l2.ReadExReq_mshr_hits::total               75                       # number of ReadExReq MSHR hits
system.l2.ReadExReq_mshr_miss_latency::.cpu.data   2598339000                       # number of ReadExReq MSHR miss cycles
[...]
system.mem_ctrls.wrQLenPdf::28                   5511                       # What write queue length does an incoming req see
system.mem_ctrls.wrQLenPdf::29                   5610                       # What write queue length does an incoming req see
system.mem_ctrls.wrQLenPdf::30                   5773                       # What write queue length does an incoming req see
system.mem_ctrls.wrQLenPdf::31                   5318                       # What write queue length does an incoming req see
system.mem_ctrls.wrQLenPdf::32                   5310                       # What write queue length does an incoming req see
system.mem_ctrls.wrQLenPdf::33                     41                       # What write queue length does an incoming req see
system.mem_ctrls.wrQLenPdf::34                      6                       # What write queue length does an incoming req see
system.mem_ctrls.wrQLenPdf::35                      5                       # What write queue length does an incoming req see
system.mem_ctrls.wrQLenPdf::36                      2                       # What write queue length does an incoming req see
system.mem_ctrls.wrQLenPdf::37                      1                       # What write queue length does an incoming req see
system.mem_ctrls.wrQLenPdf::38                      1                       # What write queue length does an incoming req see
system.mem_ctrls.wrQLenPdf::39                      1                       # What write queue length does an incoming req see
system.mem_ctrls.wrQLenPdf::40                      1                       # What write queue length does an incoming req see
system.mem_ctrls.wrQLenPdf::41                      0                       # What write queue length does an incoming req see
system.mem_ctrls.wrQLenPdf::42                      0                       # What write queue length does an incoming req see
system.mem_ctrls.wrQLenPdf::43                      0                       # What write queue length does an incoming req see
system.mem_ctrls.wrQLenPdf::44                      0                       # What write queue length does an incoming req see
system.mem_ctrls.wrQLenPdf::45                      0                       # What write queue length does an incoming req see
system.mem_ctrls.wrQLenPdf::46                      0                       # What write queue length does an incoming req see
system.mem_ctrls.wrQLenPdf::47                      0                       # What write queue length does an incoming req see
system.mem_ctrls.wrQLenPdf::48                      0                       # What write queue length does an incoming req see
system.mem_ctrls.wrQLenPdf::49                      0                       # What write queue length does an incoming req see
system.mem_ctrls.wrQLenPdf::50                      0                       # What write queue length does an incoming req see
system.mem_ctrls.wrQLenPdf::51                      0                       # What write queue length does an incoming req see
system.mem_ctrls.wrQLenPdf::52                      0                       # What write queue length does an incoming req see
system.mem_ctrls.wrQLenPdf::53                      0                       # What write queue length does an incoming req see
system.mem_ctrls.wrQLenPdf::54                      0                       # What write queue length does an incoming req see
system.mem_ctrls.wrQLenPdf::55                      0                       # What write queue length does an incoming req see
system.mem_ctrls.wrQLenPdf::56                      0                       # What write queue length does an incoming req see
system.mem_ctrls.wrQLenPdf::57                      0                       # What write queue length does an incoming req see
system.mem_ctrls.wrQLenPdf::58                      0                       # What write queue length does an incoming req see
system.mem_ctrls.wrQLenPdf::59                      0                       # What write queue length does an incoming req see
system.mem_ctrls.wrQLenPdf::60                      0                       # What write queue length does an incoming req see
system.mem_ctrls.wrQLenPdf::61                      0                       # What write queue length does an incoming req see
system.mem_ctrls.wrQLenPdf::62                      0                       # What write queue length does an incoming req see
system.mem_ctrls.wrQLenPdf::63                      0                       # What write queue length does an incoming req see
system.mem_ctrls.writeBursts                    92402                       # Number of DRAM write bursts, including those merged in the write queue
system.mem_ctrls.writePktSize::0                    0                       # Write request sizes (log2)
system.mem_ctrls.writePktSize::1                    0                       # Write request sizes (log2)
system.mem_ctrls.writePktSize::2                    0                       # Write request sizes (log2)
system.mem_ctrls.writePktSize::3                    0                       # Write request sizes (log2)
system.mem_ctrls.writePktSize::4                    0                       # Write request sizes (log2)
system.mem_ctrls.writePktSize::5                    0                       # Write request sizes (log2)
system.mem_ctrls.writePktSize::6                92402                       # Write request sizes (log2)
system.mem_ctrls.writeReqs                      92402                       # Number of write requests accepted
system.mem_ctrls.writeRowHitRate                63.20                       # Row buffer hit rate for writes
system.mem_ctrls.writeRowHits                   58133                       # Number of row buffer hits during writes
system.mem_ctrls_0.actBackEnergy           9538370880                       # Energy for active background per rank (pJ)
system.mem_ctrls_0.actEnergy               1129398060                       # Energy for activate commands per rank (pJ)
system.mem_ctrls_0.actPowerDownEnergy     48859228080                       # Energy for active power-down per rank (pJ)
system.mem_ctrls_0.averagePower            534.526759                       # Core power per rank (mW)
system.mem_ctrls_0.memoryStateTime::IDLE    634161751                       # Time in different power states
system.mem_ctrls_0.memoryStateTime::REF    5428020000                       # Time in different power states
system.mem_ctrls_0.memoryStateTime::SREF  17202344000                       # Time in different power states
system.mem_ctrls_0.memoryStateTime::PRE_PDN  33740841379                       # Time in different power states
system.mem_ctrls_0.memoryStateTime::ACT   16081270000                       # Time in different power states
system.mem_ctrls_0.memoryStateTime::ACT_PDN 107147437870                       # Time in different power states
system.mem_ctrls_0.preBackEnergy            467957280                       # Energy for precharge background per rank (pJ)
system.mem_ctrls_0.preEnergy                600289305                       # Energy for precharge commands per rank (pJ)
system.mem_ctrls_0.prePowerDownEnergy     12956598240                       # Energy for precharge power-down per rank (pJ)
system.mem_ctrls_0.readEnergy              4670395380                       # Energy for read commands per rank (pJ)
system.mem_ctrls_0.refreshEnergy         12831839280.000002                       # Energy for refresh commands per rank (pJ)
system.mem_ctrls_0.selfRefreshEnergy       5079552960                       # Energy for self refresh per rank (pJ)
system.mem_ctrls_0.totalEnergy            96339935895                       # Total energy per rank (pJ)
system.mem_ctrls_0.totalIdleTime         158087157249                       # Total Idle time Per DRAM Rank
system.mem_ctrls_0.writeEnergy              203141520                       # Energy for write commands per rank (pJ)
system.mem_ctrls_1.actBackEnergy           8647503060                       # Energy for active background per rank (pJ)
system.mem_ctrls_1.actEnergy                914362680                       # Energy for activate commands per rank (pJ)
system.mem_ctrls_1.actPowerDownEnergy     50588742600                       # Energy for active power-down per rank (pJ)
system.mem_ctrls_1.averagePower            533.225574                       # Core power per rank (mW)
system.mem_ctrls_1.memoryStateTime::IDLE    576291252                       # Time in different power states
system.mem_ctrls_1.memoryStateTime::REF    5581160000                       # Time in different power states
system.mem_ctrls_1.memoryStateTime::SREF  12647108500                       # Time in different power states
system.mem_ctrls_1.memoryStateTime::PRE_PDN  36497549523                       # Time in different power states
system.mem_ctrls_1.memoryStateTime::ACT   13992447376                       # Time in different power states
system.mem_ctrls_1.memoryStateTime::ACT_PDN 110939518349                       # Time in different power states
system.mem_ctrls_1.preBackEnergy            450564000                       # Energy for precharge background per rank (pJ)
system.mem_ctrls_1.preEnergy                485987700                       # Energy for precharge commands per rank (pJ)
system.mem_ctrls_1.prePowerDownEnergy     14015137920                       # Energy for precharge power-down per rank (pJ)
system.mem_ctrls_1.readEnergy              3603151020                       # Energy for read commands per rank (pJ)
system.mem_ctrls_1.refreshEnergy         13193862240.000002                       # Energy for refresh commands per rank (pJ)
system.mem_ctrls_1.selfRefreshEnergy       3923935860                       # Energy for self refresh per rank (pJ)
system.mem_ctrls_1.totalEnergy            96105418110                       # Total energy per rank (pJ)
system.mem_ctrls_1.totalIdleTime         160083830122                       # Total Idle time Per DRAM Rank
system.mem_ctrls_1.writeEnergy              276874020                       # Energy for write commands per rank (pJ)
system.membus.pkt_count_system.l2.mem_side::system.mem_ctrls.port      3500066                       # Packet count per connected master and slave (bytes)
system.membus.pkt_count_system.l2.mem_side::total      3500066                       # Packet count per connected master and slave (bytes)
system.membus.pkt_count::total                3500066                       # Packet count per connected master and slave (bytes)
system.membus.pkt_size_system.l2.mem_side::system.mem_ctrls.port     80691904                       # Cumulative packet size per connected master and slave (bytes)
system.membus.pkt_size_system.l2.mem_side::total     80691904                       # Cumulative packet size per connected master and slave (bytes)
system.membus.pkt_size::total                80691904                       # Cumulative packet size per connected master and slave (bytes)
system.membus.pwrStateResidencyTicks::UNDEFINED 180234075000                       # Cumulative time (in ticks) in various power states
system.membus.reqLayer2.occupancy          2748684114                       # Layer occupancy (ticks)
system.membus.reqLayer2.utilization               1.5                       # Layer utilization (%)
system.membus.respLayer1.occupancy         6067893661                       # Layer occupancy (ticks)
system.membus.respLayer1.utilization              3.4                       # Layer utilization (%)
system.membus.snoopTraffic                          0                       # Total snoop traffic (bytes)
system.membus.snoop_fanout::samples           1168804                       # Request fanout histogram
system.membus.snoop_fanout::mean                    0                       # Request fanout histogram
system.membus.snoop_fanout::stdev                   0                       # Request fanout histogram
system.membus.snoop_fanout::underflows              0      0.00%      0.00% # Request fanout histogram
system.membus.snoop_fanout::0                 1168804    100.00%    100.00% # Request fanout histogram
system.membus.snoop_fanout::1                       0      0.00%    100.00% # Request fanout histogram
system.membus.snoop_fanout::overflows               0      0.00%    100.00% # Request fanout histogram
system.membus.snoop_fanout::min_value               0                       # Request fanout histogram
system.membus.snoop_fanout::max_value               0                       # Request fanout histogram
system.membus.snoop_fanout::total             1168804                       # Request fanout histogram
system.membus.snoop_filter.hit_multi_requests            0                       # Number of requests hitting in the snoop filter with multiple (>1) holders of the requested data.
system.membus.snoop_filter.hit_multi_snoops            0                       # Number of snoops hitting in the snoop filter with multiple (>1) holders of the requested data.
system.membus.snoop_filter.hit_single_requests      1164601                       # Number of requests hitting in the snoop filter with a single holder of the requested data.
system.membus.snoop_filter.hit_single_snoops            0                       # Number of snoops hitting in the snoop filter with a single holder of the requested data.
system.membus.snoop_filter.tot_requests       2331657                       # Total number of requests made to the snoop filter.
system.membus.snoop_filter.tot_snoops               0                       # Total number of snoops made to the snoop filter.
system.membus.snoops                                0                       # Total snoops (count)
system.membus.trans_dist::ReadResp            1140491                       # Transaction distribution
system.membus.trans_dist::WritebackDirty        92402                       # Transaction distribution
system.membus.trans_dist::CleanEvict          1070451                       # Transaction distribution
system.membus.trans_dist::UpgradeReq              395                       # Transaction distribution
system.membus.trans_dist::ReadExReq             27918                       # Transaction distribution
system.membus.trans_dist::ReadExResp            27918                       # Transaction distribution
system.membus.trans_dist::ReadSharedReq       1140491                       # Transaction distribution
system.tol2bus.pkt_count_system.cpu.icache.mem_side::system.l2.cpu_side     10444337                       # Packet count per connected master and slave (bytes)
system.tol2bus.pkt_count_system.cpu.dcache.mem_side::system.l2.cpu_side      4172169                       # Packet count per connected master and slave (bytes)
system.tol2bus.pkt_count::total              14616506                       # Packet count per connected master and slave (bytes)
system.tol2bus.pkt_size_system.cpu.icache.mem_side::system.l2.cpu_side    445501312                       # Cumulative packet size per connected master and slave (bytes)
system.tol2bus.pkt_size_system.cpu.dcache.mem_side::system.l2.cpu_side    118272960                       # Cumulative packet size per connected master and slave (bytes)
system.tol2bus.pkt_size::total              563774272                       # Cumulative packet size per connected master and slave (bytes)
system.tol2bus.pwrStateResidencyTicks::UNDEFINED 180234075000                       # Cumulative time (in ticks) in various power states
system.tol2bus.reqLayer0.occupancy        17627918474                       # Layer occupancy (ticks)
system.tol2bus.reqLayer0.utilization              9.8                       # Layer utilization (%)
system.tol2bus.respLayer0.occupancy       10456033092                       # Layer occupancy (ticks)
system.tol2bus.respLayer0.utilization             5.8                       # Layer utilization (%)
system.tol2bus.respLayer1.occupancy        4173104498                       # Layer occupancy (ticks)
system.tol2bus.respLayer1.utilization             2.3                       # Layer utilization (%)
system.tol2bus.snoopTraffic                   6184704                       # Total snoop traffic (bytes)
system.tol2bus.snoop_fanout::samples          7152827                       # Request fanout histogram
system.tol2bus.snoop_fanout::mean            0.038666                       # Request fanout histogram
system.tol2bus.snoop_fanout::stdev           0.195020                       # Request fanout histogram
system.tol2bus.snoop_fanout::underflows             0      0.00%      0.00% # Request fanout histogram
system.tol2bus.snoop_fanout::0                6879342     96.18%     96.18% # Request fanout histogram
system.tol2bus.snoop_fanout::1                 270401      3.78%     99.96% # Request fanout histogram
system.tol2bus.snoop_fanout::2                   3084      0.04%    100.00% # Request fanout histogram
system.tol2bus.snoop_fanout::3                      0      0.00%    100.00% # Request fanout histogram
system.tol2bus.snoop_fanout::4                      0      0.00%    100.00% # Request fanout histogram
system.tol2bus.snoop_fanout::overflows              0      0.00%    100.00% # Request fanout histogram
system.tol2bus.snoop_fanout::min_value              0                       # Request fanout histogram
system.tol2bus.snoop_fanout::max_value              2                       # Request fanout histogram
system.tol2bus.snoop_fanout::total            7152827                       # Request fanout histogram
system.tol2bus.snoop_filter.hit_multi_requests        82358                       # Number of requests hitting in the snoop filter with multiple (>1) holders of the requested data.
system.tol2bus.snoop_filter.hit_multi_snoops         3084                       # Number of snoops hitting in the snoop filter with multiple (>1) holders of the requested data.
system.tol2bus.snoop_filter.hit_single_requests      4872316                       # Number of requests hitting in the snoop filter with a single holder of the requested data.
system.tol2bus.snoop_filter.hit_single_snoops       188024                       # Number of snoops hitting in the snoop filter with a single holder of the requested data.
system.tol2bus.snoop_filter.tot_requests      9746411                       # Total number of requests made to the snoop filter.
system.tol2bus.snoop_filter.tot_snoops         191108                       # Total number of snoops made to the snoop filter.
system.tol2bus.snoops                         2281612                       # Total snoops (count)
system.tol2bus.trans_dist::ReadResp           4698305                       # Transaction distribution
system.tol2bus.trans_dist::WritebackDirty       551078                       # Transaction distribution
system.tol2bus.trans_dist::WritebackClean      3481815                       # Transaction distribution
system.tol2bus.trans_dist::CleanEvict         2068899                       # Transaction distribution
system.tol2bus.trans_dist::HardPFReq          1045716                       # Transaction distribution
system.tol2bus.trans_dist::UpgradeReq            2588                       # Transaction distribution
system.tol2bus.trans_dist::UpgradeResp           2588                       # Transaction distribution
system.tol2bus.trans_dist::ReadExReq           174411                       # Transaction distribution
system.tol2bus.trans_dist::ReadExResp          174411                       # Transaction distribution
system.tol2bus.trans_dist::ReadCleanReq       3483379                       # Transaction distribution
system.tol2bus.trans_dist::ReadSharedReq      1214928                       # Transaction distribution
system.voltage_domain.voltage                       1                       # Voltage in Volts

---------- End Simulation Statistics   ----------
