
---------- Begin Simulation Statistics ----------
final_tick                               18446744073709551616                       # Number of ticks from beginning of simulation (restored from checkpoints and never reset)
host_inst_rate                                 489290                       # Simulator instruction rate (inst/s)
host_mem_usage                                 896936                       # Number of bytes of host memory used
host_op_rate                                   976563                       # Simulator op (including micro ops) rate (op/s)
host_seconds                                    20.63                       # Real time elapsed on the host
host_tick_rate                           894265196659509760                       # Simulator tick rate (ticks/s)
sim_freq                                 1000000000000                       # Frequency of simulated ticks
sim_insts                                    10092875                       # Number of instructions simulated
sim_ops                                      20144336                       # Number of ops (including micro ops) simulated
sim_seconds                              18446744.073710                       # Number of seconds simulated
sim_ticks                                18446744073709551616                       # Number of ticks simulated
system.clk_domain.clock                          1000                       # Clock period in ticks
system.cpu.apic_clk_domain.clock                16000                       # Clock period in ticks
system.cpu.branchPred.BTBCorrect                    0                       # Number of correct BTB predictions (this stat may not work properly.
system.cpu.branchPred.BTBHitPct                   nan                       # BTB Hit Percentage
system.cpu.branchPred.BTBHits                       0                       # Number of BTB hits
system.cpu.branchPred.BTBLookups                    0                       # Number of BTB lookups
system.cpu.branchPred.RASInCorrect                  0                       # Number of incorrect RAS predictions.
system.cpu.branchPred.condIncorrect                 1                       # Number of conditional branches incorrect
system.cpu.branchPred.condPredicted                 1                       # Number of conditional branches predicted
system.cpu.branchPred.indirectHits                  0                       # Number of indirect target hits.
system.cpu.branchPred.indirectLookups               0                       # Number of indirect predictor lookups.
system.cpu.branchPred.indirectMisses                0                       # Number of indirect misses.
system.cpu.branchPred.lookups                       1                       # Number of BP lookups
system.cpu.branchPred.usedRAS                       0                       # Number of times the RAS was used to get a target.
system.cpu.branchPredindirectMispredicted            0                       # Number of mispredicted indirect branches.
system.cpu.cc_regfile_reads                         5                       # number of cc regfile reads
system.cpu.commit.amos                              0                       # Number of atomic instructions committed
system.cpu.commit.branchMispredicts                 1                       # The number of times a branch was mispredicted
system.cpu.commit.branches                          1                       # Number of branches committed
system.cpu.commit.bw_lim_events                     0                       # number cycles where commit BW limit reached
system.cpu.commit.commitSquashedInsts              24                       # The number of squashed insts skipped by commit
system.cpu.commit.committedInsts                    3                       # Number of instructions committed
system.cpu.commit.committedOps                      8                       # Number of ops (including micro ops) committed
system.cpu.commit.committed_per_cycle::samples           51                       # Number of insts commited each cycle
system.cpu.commit.committed_per_cycle::mean     0.156863                       # Number of insts commited each cycle
system.cpu.commit.committed_per_cycle::stdev     0.880285                       # Number of insts commited each cycle
system.cpu.commit.committed_per_cycle::underflows            0      0.00%      0.00% # Number of insts commited each cycle
system.cpu.commit.committed_per_cycle::0           49     96.08%     96.08% # Number of insts commited each cycle
system.cpu.commit.committed_per_cycle::1            0      0.00%     96.08% # Number of insts commited each cycle
system.cpu.commit.committed_per_cycle::2            1      1.96%     98.04% # Number of insts commited each cycle
system.cpu.commit.committed_per_cycle::3            0      0.00%     98.04% # Number of insts commited each cycle
system.cpu.commit.committed_per_cycle::4            0      0.00%     98.04% # Number of insts commited each cycle
system.cpu.commit.committed_per_cycle::5            0      0.00%     98.04% # Number of insts commited each cycle
system.cpu.commit.committed_per_cycle::6            1      1.96%    100.00% # Number of insts commited each cycle
system.cpu.commit.committed_per_cycle::7            0      0.00%    100.00% # Number of insts commited each cycle
system.cpu.commit.committed_per_cycle::8            0      0.00%    100.00% # Number of insts commited each cycle
system.cpu.commit.committed_per_cycle::overflows            0      0.00%    100.00% # Number of insts commited each cycle
system.cpu.commit.committed_per_cycle::min_value            0                       # Number of insts commited each cycle
system.cpu.commit.committed_per_cycle::max_value            6                       # Number of insts commited each cycle
system.cpu.commit.committed_per_cycle::total           51                       # Number of insts commited each cycle
system.cpu.commit.fp_insts                          0                       # Number of committed floating point instructions.
system.cpu.commit.function_calls                    1                       # Number of function calls committed.
system.cpu.commit.int_insts                         8                       # Number of committed integer instructions.
system.cpu.commit.loads                             0                       # Number of loads committed
system.cpu.commit.membars                           0                       # Number of memory barriers committed
system.cpu.commit.op_class_0::No_OpClass            0      0.00%      0.00% # Class of committed instruction
system.cpu.commit.op_class_0::IntAlu                6     75.00%     75.00% # Class of committed instruction
system.cpu.commit.op_class_0::IntMult               0      0.00%     75.00% # Class of committed instruction
system.cpu.commit.op_class_0::IntDiv                0      0.00%     75.00% # Class of committed instruction
system.cpu.commit.op_class_0::FloatAdd              0      0.00%     75.00% # Class of committed instruction
system.cpu.commit.op_class_0::FloatCmp              0      0.00%     75.00% # Class of committed instruction
system.cpu.commit.op_class_0::FloatCvt              0      0.00%     75.00% # Class of committed instruction
system.cpu.commit.op_class_0::FloatMult             0      0.00%     75.00% # Class of committed instruction
system.cpu.commit.op_class_0::FloatMultAcc            0      0.00%     75.00% # Class of committed instruction
system.cpu.commit.op_class_0::FloatDiv              0      0.00%     75.00% # Class of committed instruction
system.cpu.commit.op_class_0::FloatMisc             0      0.00%     75.00% # Class of committed instruction
system.cpu.commit.op_class_0::FloatSqrt             0      0.00%     75.00% # Class of committed instruction
system.cpu.commit.op_class_0::SimdAdd               0      0.00%     75.00% # Class of committed instruction
system.cpu.commit.op_class_0::SimdAddAcc            0      0.00%     75.00% # Class of committed instruction
system.cpu.commit.op_class_0::SimdAlu               0      0.00%     75.00% # Class of committed instruction
system.cpu.commit.op_class_0::SimdCmp               0      0.00%     75.00% # Class of committed instruction
system.cpu.commit.op_class_0::SimdCvt               0      0.00%     75.00% # Class of committed instruction
system.cpu.commit.op_class_0::SimdMisc              0      0.00%     75.00% # Class of committed instruction
system.cpu.commit.op_class_0::SimdMult              0      0.00%     75.00% # Class of committed instruction
system.cpu.commit.op_class_0::SimdMultAcc            0      0.00%     75.00% # Class of committed instruction
system.cpu.commit.op_class_0::SimdShift             0      0.00%     75.00% # Class of committed instruction
system.cpu.commit.op_class_0::SimdShiftAcc            0      0.00%     75.00% # Class of committed instruction
system.cpu.commit.op_class_0::SimdDiv               0      0.00%     75.00% # Class of committed instruction
system.cpu.commit.op_class_0::SimdSqrt              0      0.00%     75.00% # Class of committed instruction
system.cpu.commit.op_class_0::SimdFloatAdd            0      0.00%     75.00% # Class of committed instruction
system.cpu.commit.op_class_0::SimdFloatAlu            0      0.00%     75.00% # Class of committed instruction
system.cpu.commit.op_class_0::SimdFloatCmp            0      0.00%     75.00% # Class of committed instruction
system.cpu.commit.op_class_0::SimdFloatCvt            0      0.00%     75.00% # Class of committed instruction
system.cpu.commit.op_class_0::SimdFloatDiv            0      0.00%     75.00% # Class of committed instruction
system.cpu.commit.op_class_0::SimdFloatMisc            0      0.00%     75.00% # Class of committed instruction
system.cpu.commit.op_class_0::SimdFloatMult            0      0.00%     75.00% # Class of committed instruction
system.cpu.commit.op_class_0::SimdFloatMultAcc            0      0.00%     75.00% # Class of committed instruction
system.cpu.commit.op_class_0::SimdFloatSqrt            0      0.00%     75.00% # Class of committed instruction
system.cpu.commit.op_class_0::SimdReduceAdd            0      0.00%     75.00% # Class of committed instruction
system.cpu.commit.op_class_0::SimdReduceAlu            0      0.00%     75.00% # Class of committed instruction
system.cpu.commit.op_class_0::SimdReduceCmp            0      0.00%     75.00% # Class of committed instruction
system.cpu.commit.op_class_0::SimdFloatReduceAdd            0      0.00%     75.00% # Class of committed instruction
system.cpu.commit.op_class_0::SimdFloatReduceCmp            0      0.00%     75.00% # Class of committed instruction
system.cpu.commit.op_class_0::SimdAes               0      0.00%     75.00% # Class of committed instruction
system.cpu.commit.op_class_0::SimdAesMix            0      0.00%     75.00% # Class of committed instruction
system.cpu.commit.op_class_0::SimdSha1Hash            0      0.00%     75.00% # Class of committed instruction
system.cpu.commit.op_class_0::SimdSha1Hash2            0      0.00%     75.00% # Class of committed instruction
system.cpu.commit.op_class_0::SimdSha256Hash            0      0.00%     75.00% # Class of committed instruction
system.cpu.commit.op_class_0::SimdSha256Hash2            0      0.00%     75.00% # Class of committed instruction
system.cpu.commit.op_class_0::SimdShaSigma2            0      0.00%     75.00% # Class of committed instruction
system.cpu.commit.op_class_0::SimdShaSigma3            0      0.00%     75.00% # Class of committed instruction
system.cpu.commit.op_class_0::SimdPredAlu            0      0.00%     75.00% # Class of committed instruction
system.cpu.commit.op_class_0::MemRead               0      0.00%     75.00% # Class of committed instruction
system.cpu.commit.op_class_0::MemWrite              2     25.00%    100.00% # Class of committed instruction
system.cpu.commit.op_class_0::FloatMemRead            0      0.00%    100.00% # Class of committed instruction
system.cpu.commit.op_class_0::FloatMemWrite            0      0.00%    100.00% # Class of committed instruction
system.cpu.commit.op_class_0::IprAccess             0      0.00%    100.00% # Class of committed instruction
system.cpu.commit.op_class_0::InstPrefetch            0      0.00%    100.00% # Class of committed instruction
system.cpu.commit.op_class_0::total                 8                       # Class of committed instruction
system.cpu.commit.refs                              2                       # Number of memory references committed
system.cpu.commit.swp_count                         0                       # Number of s/w prefetches committed
system.cpu.commit.vec_insts                         0                       # Number of committed Vector instructions.
system.cpu.committedInsts                           3                       # Number of Instructions Simulated
system.cpu.committedOps                             8                       # Number of Ops (including micro ops) Simulated
system.cpu.cpi                              89.000000                       # CPI: Cycles Per Instruction
system.cpu.cpi_total                        89.000000                       # CPI: Total CPI of All Threads
system.cpu.dcache.ReadReq_accesses::.cpu.data            1                       # number of ReadReq accesses(hits+misses)
system.cpu.dcache.ReadReq_accesses::.switch_cpus.data      2257984                       # number of ReadReq accesses(hits+misses)
system.cpu.dcache.ReadReq_accesses::total      2257985                       # number of ReadReq accesses(hits+misses)
system.cpu.dcache.ReadReq_avg_miss_latency::.cpu.data       124000                       # average ReadReq miss latency
system.cpu.dcache.ReadReq_avg_miss_latency::.switch_cpus.data 91930.143442                       # average ReadReq miss latency
system.cpu.dcache.ReadReq_avg_miss_latency::total 91930.973772                       # average ReadReq miss latency
system.cpu.dcache.ReadReq_avg_mshr_miss_latency::.cpu.data       122000                       # average ReadReq mshr miss latency
system.cpu.dcache.ReadReq_avg_mshr_miss_latency::.switch_cpus.data 89930.143442                       # average ReadReq mshr miss latency
system.cpu.dcache.ReadReq_avg_mshr_miss_latency::total 89930.973772                       # average ReadReq mshr miss latency
system.cpu.dcache.ReadReq_hits::.switch_cpus.data      2219362                       # number of ReadReq hits
system.cpu.dcache.ReadReq_hits::total         2219362                       # number of ReadReq hits
system.cpu.dcache.ReadReq_miss_latency::.cpu.data       124000                       # number of ReadReq miss cycles
system.cpu.dcache.ReadReq_miss_latency::.switch_cpus.data   3550526000                       # number of ReadReq miss cycles
system.cpu.dcache.ReadReq_miss_latency::total   3550650000                       # number of ReadReq miss cycles
system.cpu.dcache.ReadReq_miss_rate::.cpu.data            1                       # miss rate for ReadReq accesses
system.cpu.dcache.ReadReq_miss_rate::.switch_cpus.data     0.017105                       # miss rate for ReadReq accesses
system.cpu.dcache.ReadReq_miss_rate::total     0.017105                       # miss rate for ReadReq accesses
system.cpu.dcache.ReadReq_misses::.cpu.data            1                       # number of ReadReq misses
system.cpu.dcache.ReadReq_misses::.switch_cpus.data        38622                       # number of ReadReq misses
system.cpu.dcache.ReadReq_misses::total         38623                       # number of ReadReq misses
system.cpu.dcache.ReadReq_mshr_miss_latency::.cpu.data       122000                       # number of ReadReq MSHR miss cycles
system.cpu.dcache.ReadReq_mshr_miss_latency::.switch_cpus.data   3473282000                       # number of ReadReq MSHR miss cycles
system.cpu.dcache.ReadReq_mshr_miss_latency::total   3473404000                       # number of ReadReq MSHR miss cycles
system.cpu.dcache.ReadReq_mshr_miss_rate::.cpu.data            1                       # mshr miss rate for ReadReq accesses
system.cpu.dcache.ReadReq_mshr_miss_rate::.switch_cpus.data     0.017105                       # mshr miss rate for ReadReq accesses
system.cpu.dcache.ReadReq_mshr_miss_rate::total     0.017105                       # mshr miss rate for ReadReq accesses
system.cpu.dcache.ReadReq_mshr_misses::.cpu.data            1                       # number of ReadReq MSHR misses
system.cpu.dcache.ReadReq_mshr_misses::.switch_cpus.data        38622                       # number of ReadReq MSHR misses
system.cpu.dcache.ReadReq_mshr_misses::total        38623                       # number of ReadReq MSHR misses
system.cpu.dcache.WriteReq_accesses::.cpu.data            2                       # number of WriteReq accesses(hits+misses)
system.cpu.dcache.WriteReq_accesses::.switch_cpus.data      1523549                       # number of WriteReq accesses(hits+misses)
system.cpu.dcache.WriteReq_accesses::total      1523551                       # number of WriteReq accesses(hits+misses)
system.cpu.dcache.WriteReq_avg_miss_latency::.cpu.data       124000                       # average WriteReq miss latency
system.cpu.dcache.WriteReq_avg_miss_latency::.switch_cpus.data 114948.883757                       # average WriteReq miss latency
system.cpu.dcache.WriteReq_avg_miss_latency::total 114949.162458                       # average WriteReq miss latency
system.cpu.dcache.WriteReq_avg_mshr_miss_latency::.cpu.data       122000                       # average WriteReq mshr miss latency
system.cpu.dcache.WriteReq_avg_mshr_miss_latency::.switch_cpus.data 112948.883757                       # average WriteReq mshr miss latency
system.cpu.dcache.WriteReq_avg_mshr_miss_latency::total 112949.162458                       # average WriteReq mshr miss latency
system.cpu.dcache.WriteReq_hits::.cpu.data            1                       # number of WriteReq hits
system.cpu.dcache.WriteReq_hits::.switch_cpus.data      1491074                       # number of WriteReq hits
system.cpu.dcache.WriteReq_hits::total        1491075                       # number of WriteReq hits
system.cpu.dcache.WriteReq_miss_latency::.cpu.data       124000                       # number of WriteReq miss cycles
system.cpu.dcache.WriteReq_miss_latency::.switch_cpus.data   3732965000                       # number of WriteReq miss cycles
system.cpu.dcache.WriteReq_miss_latency::total   3733089000                       # number of WriteReq miss cycles
system.cpu.dcache.WriteReq_miss_rate::.cpu.data     0.500000                       # miss rate for WriteReq accesses
system.cpu.dcache.WriteReq_miss_rate::.switch_cpus.data     0.021315                       # miss rate for WriteReq accesses
system.cpu.dcache.WriteReq_miss_rate::total     0.021316                       # miss rate for WriteReq accesses
system.cpu.dcache.WriteReq_misses::.cpu.data            1                       # number of WriteReq misses
system.cpu.dcache.WriteReq_misses::.switch_cpus.data        32475                       # number of WriteReq misses
system.cpu.dcache.WriteReq_misses::total        32476                       # number of WriteReq misses
system.cpu.dcache.WriteReq_mshr_miss_latency::.cpu.data       122000                       # number of WriteReq MSHR miss cycles
system.cpu.dcache.WriteReq_mshr_miss_latency::.switch_cpus.data   3668015000                       # number of WriteReq MSHR miss cycles
system.cpu.dcache.WriteReq_mshr_miss_latency::total   3668137000                       # number of WriteReq MSHR miss cycles
system.cpu.dcache.WriteReq_mshr_miss_rate::.cpu.data     0.500000                       # mshr miss rate for WriteReq accesses
system.cpu.dcache.WriteReq_mshr_miss_rate::.switch_cpus.data     0.021315                       # mshr miss rate for WriteReq accesses
system.cpu.dcache.WriteReq_mshr_miss_rate::total     0.021316                       # mshr miss rate for WriteReq accesses
system.cpu.dcache.WriteReq_mshr_misses::.cpu.data            1                       # number of WriteReq MSHR misses
system.cpu.dcache.WriteReq_mshr_misses::.switch_cpus.data        32475                       # number of WriteReq MSHR misses
system.cpu.dcache.WriteReq_mshr_misses::total        32476                       # number of WriteReq MSHR misses
system.cpu.dcache.avg_blocked_cycles::no_mshrs          nan                       # average number of cycles each access was blocked
system.cpu.dcache.avg_blocked_cycles::no_targets          nan                       # average number of cycles each access was blocked
system.cpu.dcache.blocked::no_mshrs                 0                       # number of cycles access was blocked
system.cpu.dcache.blocked::no_targets               0                       # number of cycles access was blocked
system.cpu.dcache.blocked_cycles::no_mshrs            0                       # number of cycles access was blocked
system.cpu.dcache.blocked_cycles::no_targets            0                       # number of cycles access was blocked
system.cpu.dcache.demand_accesses::.cpu.data            3                       # number of demand (read+write) accesses
system.cpu.dcache.demand_accesses::.switch_cpus.data      3781533                       # number of demand (read+write) accesses
system.cpu.dcache.demand_accesses::total      3781536                       # number of demand (read+write) accesses
system.cpu.dcache.demand_avg_miss_latency::.cpu.data       124000                       # average overall miss latency
system.cpu.dcache.demand_avg_miss_latency::.switch_cpus.data 102444.421002                       # average overall miss latency
system.cpu.dcache.demand_avg_miss_latency::total 102445.027356                       # average overall miss latency
system.cpu.dcache.demand_avg_mshr_miss_latency::.cpu.data       122000                       # average overall mshr miss latency
system.cpu.dcache.demand_avg_mshr_miss_latency::.switch_cpus.data 100444.421002                       # average overall mshr miss latency
system.cpu.dcache.demand_avg_mshr_miss_latency::total 100445.027356                       # average overall mshr miss latency
system.cpu.dcache.demand_hits::.cpu.data            1                       # number of demand (read+write) hits
system.cpu.dcache.demand_hits::.switch_cpus.data      3710436                       # number of demand (read+write) hits
system.cpu.dcache.demand_hits::total          3710437                       # number of demand (read+write) hits
system.cpu.dcache.demand_miss_latency::.cpu.data       248000                       # number of demand (read+write) miss cycles
system.cpu.dcache.demand_miss_latency::.switch_cpus.data   7283491000                       # number of demand (read+write) miss cycles
system.cpu.dcache.demand_miss_latency::total   7283739000                       # number of demand (read+write) miss cycles
system.cpu.dcache.demand_miss_rate::.cpu.data     0.666667                       # miss rate for demand accesses
system.cpu.dcache.demand_miss_rate::.switch_cpus.data     0.018801                       # miss rate for demand accesses
system.cpu.dcache.demand_miss_rate::total     0.018802                       # miss rate for demand accesses
system.cpu.dcache.demand_misses::.cpu.data            2                       # number of demand (read+write) misses
system.cpu.dcache.demand_misses::.switch_cpus.data        71097                       # number of demand (read+write) misses
system.cpu.dcache.demand_misses::total          71099                       # number of demand (read+write) misses
system.cpu.dcache.demand_mshr_miss_latency::.cpu.data       244000                       # number of demand (read+write) MSHR miss cycles
system.cpu.dcache.demand_mshr_miss_latency::.switch_cpus.data   7141297000                       # number of demand (read+write) MSHR miss cycles
system.cpu.dcache.demand_mshr_miss_latency::total   7141541000                       # number of demand (read+write) MSHR miss cycles
system.cpu.dcache.demand_mshr_miss_rate::.cpu.data     0.666667                       # mshr miss rate for demand accesses
system.cpu.dcache.demand_mshr_miss_rate::.switch_cpus.data     0.018801                       # mshr miss rate for demand accesses
system.cpu.dcache.demand_mshr_miss_rate::total     0.018802                       # mshr miss rate for demand accesses
system.cpu.dcache.demand_mshr_misses::.cpu.data            2                       # number of demand (read+write) MSHR misses
system.cpu.dcache.demand_mshr_misses::.switch_cpus.data        71097                       # number of demand (read+write) MSHR misses
system.cpu.dcache.demand_mshr_misses::total        71099                       # number of demand (read+write) MSHR misses
system.cpu.dcache.overall_accesses::.cpu.data            3                       # number of overall (read+write) accesses
system.cpu.dcache.overall_accesses::.switch_cpus.data      3781533                       # number of overall (read+write) accesses
system.cpu.dcache.overall_accesses::total      3781536                       # number of overall (read+write) accesses
system.cpu.dcache.overall_avg_miss_latency::.cpu.data       124000                       # average overall miss latency
system.cpu.dcache.overall_avg_miss_latency::.switch_cpus.data 102444.421002                       # average overall miss latency
system.cpu.dcache.overall_avg_miss_latency::total 102445.027356                       # average overall miss latency
system.cpu.dcache.overall_avg_mshr_miss_latency::.cpu.data       122000                       # average overall mshr miss latency
system.cpu.dcache.overall_avg_mshr_miss_latency::.switch_cpus.data 100444.421002                       # average overall mshr miss latency
system.cpu.dcache.overall_avg_mshr_miss_latency::total 100445.027356                       # average overall mshr miss latency
system.cpu.dcache.overall_hits::.cpu.data            1                       # number of overall hits
system.cpu.dcache.overall_hits::.switch_cpus.data      3710436                       # number of overall hits
system.cpu.dcache.overall_hits::total         3710437                       # number of overall hits
system.cpu.dcache.overall_miss_latency::.cpu.data       248000                       # number of overall miss cycles
system.cpu.dcache.overall_miss_latency::.switch_cpus.data   7283491000                       # number of overall miss cycles
system.cpu.dcache.overall_miss_latency::total   7283739000                       # number of overall miss cycles
system.cpu.dcache.overall_miss_rate::.cpu.data     0.666667                       # miss rate for overall accesses
system.cpu.dcache.overall_miss_rate::.switch_cpus.data     0.018801                       # miss rate for overall accesses
system.cpu.dcache.overall_miss_rate::total     0.018802                       # miss rate for overall accesses
system.cpu.dcache.overall_misses::.cpu.data            2                       # number of overall misses
system.cpu.dcache.overall_misses::.switch_cpus.data        71097                       # number of overall misses
system.cpu.dcache.overall_misses::total         71099                       # number of overall misses
system.cpu.dcache.overall_mshr_miss_latency::.cpu.data       244000                       # number of overall MSHR miss cycles
system.cpu.dcache.overall_mshr_miss_latency::.switch_cpus.data   7141297000                       # number of overall MSHR miss cycles
system.cpu.dcache.overall_mshr_miss_latency::total   7141541000                       # number of overall MSHR miss cycles
system.cpu.dcache.overall_mshr_miss_rate::.cpu.data     0.666667                       # mshr miss rate for overall accesses
system.cpu.dcache.overall_mshr_miss_rate::.switch_cpus.data     0.018801                       # mshr miss rate for overall accesses
system.cpu.dcache.overall_mshr_miss_rate::total     0.018802                       # mshr miss rate for overall accesses
system.cpu.dcache.overall_mshr_misses::.cpu.data            2                       # number of overall MSHR misses
system.cpu.dcache.overall_mshr_misses::.switch_cpus.data        71097                       # number of overall MSHR misses
system.cpu.dcache.overall_mshr_misses::total        71099                       # number of overall MSHR misses
system.cpu.dcache.pwrStateResidencyTicks::UNDEFINED 18446744073709551616                       # Cumulative time (in ticks) in various power states
system.cpu.dcache.replacements                  70075                       # number of replacements
system.cpu.dcache.tags.age_task_id_blocks_1024::4         1024                       # Occupied blocks per task id
system.cpu.dcache.tags.avg_refs             53.186908                       # Average number of references to valid blocks.
system.cpu.dcache.tags.data_accesses          7634171                       # Number of data accesses
system.cpu.dcache.tags.occ_blocks::.cpu.data          inf                       # Average occupied blocks per requestor
system.cpu.dcache.tags.occ_blocks::.switch_cpus.data          inf                       # Average occupied blocks per requestor
system.cpu.dcache.tags.occ_percent::.writebacks          nan                       # Average percentage of cache occupancy
system.cpu.dcache.tags.occ_percent::.functional          nan                       # Average percentage of cache occupancy
system.cpu.dcache.tags.occ_percent::.interrupt          nan                       # Average percentage of cache occupancy
system.cpu.dcache.tags.occ_percent::.cpu.dtb.walker          nan                       # Average percentage of cache occupancy
system.cpu.dcache.tags.occ_percent::.cpu.itb.walker          nan                       # Average percentage of cache occupancy
system.cpu.dcache.tags.occ_percent::.cpu.inst          nan                       # Average percentage of cache occupancy
system.cpu.dcache.tags.occ_percent::.cpu.data          inf                       # Average percentage of cache occupancy
system.cpu.dcache.tags.occ_percent::.l2.prefetcher          nan                       # Average percentage of cache occupancy
system.cpu.dcache.tags.occ_percent::.switch_cpus.dtb.walker          nan                       # Average percentage of cache occupancy
system.cpu.dcache.tags.occ_percent::.switch_cpus.itb.walker          nan                       # Average percentage of cache occupancy
system.cpu.dcache.tags.occ_percent::.switch_cpus.inst          nan                       # Average percentage of cache occupancy
system.cpu.dcache.tags.occ_percent::.switch_cpus.data          inf                       # Average percentage of cache occupancy
system.cpu.dcache.tags.occ_percent::.switch_cpus_1.dtb.walker          nan                       # Average percentage of cache occupancy
system.cpu.dcache.tags.occ_percent::.switch_cpus_1.itb.walker          nan                       # Average percentage of cache occupancy
system.cpu.dcache.tags.occ_percent::.switch_cpus_1.inst          nan                       # Average percentage of cache occupancy
system.cpu.dcache.tags.occ_percent::.switch_cpus_1.data          nan                       # Average percentage of cache occupancy
system.cpu.dcache.tags.occ_percent::total          nan                       # Average percentage of cache occupancy
system.cpu.dcache.tags.occ_task_id_blocks::1024         1024                       # Occupied blocks per task id
system.cpu.dcache.tags.occ_task_id_percent::1024            1                       # Percentage of cache occupancy per task id
system.cpu.dcache.tags.pwrStateResidencyTicks::UNDEFINED 18446744073709551616                       # Cumulative time (in ticks) in various power states
system.cpu.dcache.tags.sampled_refs             71099                       # Sample count of references to valid blocks.
system.cpu.dcache.tags.tag_accesses           7634171                       # Number of tag accesses
system.cpu.dcache.tags.tagsinuse                  inf                       # Cycle average of tags in use
system.cpu.dcache.tags.total_refs             3781536                       # Total number of references to valid blocks.
system.cpu.dcache.tags.warmup_cycle            239000                       # Cycle when the warmup percentage was hit.
system.cpu.dcache.writebacks::.writebacks        43657                       # number of writebacks
system.cpu.dcache.writebacks::total             43657                       # number of writebacks
system.cpu.decode.BlockedCycles                     2                       # Number of cycles decode is blocked
system.cpu.decode.DecodedInsts                     32                       # Number of instructions handled by decode
system.cpu.decode.IdleCycles                       46                       # Number of cycles decode is idle
system.cpu.decode.RunCycles                         5                       # Number of cycles decode is running
system.cpu.decode.SquashCycles                      3                       # Number of cycles decode is squashing
system.cpu.dtb.rdAccesses                           2                       # TLB accesses on read requests
system.cpu.dtb.rdMisses                             1                       # TLB misses on read requests
system.cpu.dtb.walker.pwrStateResidencyTicks::UNDEFINED 18446744073709551616                       # Cumulative time (in ticks) in various power states
system.cpu.dtb.wrAccesses                           5                       # TLB accesses on write requests
system.cpu.dtb.wrMisses                             1                       # TLB misses on write requests
system.cpu.dtb_walker_cache.avg_blocked_cycles::no_mshrs          nan                       # average number of cycles each access was blocked
system.cpu.dtb_walker_cache.avg_blocked_cycles::no_targets          nan                       # average number of cycles each access was blocked
system.cpu.dtb_walker_cache.blocked::no_mshrs            0                       # number of cycles access was blocked
system.cpu.dtb_walker_cache.blocked::no_targets            0                       # number of cycles access was blocked
system.cpu.dtb_walker_cache.blocked_cycles::no_mshrs            0                       # number of cycles access was blocked
system.cpu.dtb_walker_cache.blocked_cycles::no_targets            0                       # number of cycles access was blocked
system.cpu.dtb_walker_cache.pwrStateResidencyTicks::UNDEFINED 18446744073709551616                       # Cumulative time (in ticks) in various power states
system.cpu.dtb_walker_cache.replacements            0                       # number of replacements
system.cpu.dtb_walker_cache.tags.avg_refs          nan                       # Average number of references to valid blocks.
system.cpu.dtb_walker_cache.tags.data_accesses            0                       # Number of data accesses
system.cpu.dtb_walker_cache.tags.occ_percent::.writebacks          nan                       # Average percentage of cache occupancy
system.cpu.dtb_walker_cache.tags.occ_percent::.functional          nan                       # Average percentage of cache occupancy
system.cpu.dtb_walker_cache.tags.occ_percent::.interrupt          nan                       # Average percentage of cache occupancy
system.cpu.dtb_walker_cache.tags.occ_percent::.cpu.dtb.walker          nan                       # Average percentage of cache occupancy
system.cpu.dtb_walker_cache.tags.occ_percent::.cpu.itb.walker          nan                       # Average percentage of cache occupancy
system.cpu.dtb_walker_cache.tags.occ_percent::.cpu.inst          nan                       # Average percentage of cache occupancy
system.cpu.dtb_walker_cache.tags.occ_percent::.cpu.data          nan                       # Average percentage of cache occupancy
system.cpu.dtb_walker_cache.tags.occ_percent::.l2.prefetcher          nan                       # Average percentage of cache occupancy
system.cpu.dtb_walker_cache.tags.occ_percent::.switch_cpus.dtb.walker          nan                       # Average percentage of cache occupancy
system.cpu.dtb_walker_cache.tags.occ_percent::.switch_cpus.itb.walker          nan                       # Average percentage of cache occupancy
system.cpu.dtb_walker_cache.tags.occ_percent::.switch_cpus.inst          nan                       # Average percentage of cache occupancy
system.cpu.dtb_walker_cache.tags.occ_percent::.switch_cpus.data          nan                       # Average percentage of cache occupancy
system.cpu.dtb_walker_cache.tags.occ_percent::.switch_cpus_1.dtb.walker          nan                       # Average percentage of cache occupancy
system.cpu.dtb_walker_cache.tags.occ_percent::.switch_cpus_1.itb.walker          nan                       # Average percentage of cache occupancy
system.cpu.dtb_walker_cache.tags.occ_percent::.switch_cpus_1.inst          nan                       # Average percentage of cache occupancy
system.cpu.dtb_walker_cache.tags.occ_percent::.switch_cpus_1.data          nan                       # Average percentage of cache occupancy
system.cpu.dtb_walker_cache.tags.occ_percent::total          nan                       # Average percentage of cache occupancy
system.cpu.dtb_walker_cache.tags.pwrStateResidencyTicks::UNDEFINED 18446744073709551616                       # Cumulative time (in ticks) in various power states
system.cpu.dtb_walker_cache.tags.sampled_refs            0                       # Sample count of references to valid blocks.
system.cpu.dtb_walker_cache.tags.tag_accesses            0                       # Number of tag accesses
system.cpu.dtb_walker_cache.tags.tagsinuse          nan                       # Cycle average of tags in use
system.cpu.dtb_walker_cache.tags.total_refs            0                       # Total number of references to valid blocks.
system.cpu.dtb_walker_cache.tags.warmup_cycle            0                       # Cycle when the warmup percentage was hit.
system.cpu.fetch.Branches                           1                       # Number of branches that fetch encountered
system.cpu.fetch.CacheLines                         5                       # Number of cache lines fetched
system.cpu.fetch.Cycles                             5                       # Number of cycles fetch has run and was not squashing or blocked
system.cpu.fetch.IcacheSquashes                     3                       # Number of outstanding Icache misses that were squashed
system.cpu.fetch.Insts                             18                       # Number of instructions fetch has processed
system.cpu.fetch.PendingDrainCycles                 6                       # Number of cycles fetch has spent waiting on pipes to drain
system.cpu.fetch.SquashCycles                       5                       # Number of cycles fetch has spent squashing
system.cpu.fetch.branchRate                  0.003745                       # Number of branch fetches per cycle
system.cpu.fetch.icacheStallCycles                 43                       # Number of cycles fetch is stalled on an Icache miss
system.cpu.fetch.rate                        0.067416                       # Number of inst fetches per cycle
system.cpu.fetch.rateDist::samples                 56                       # Number of instructions fetched each cycle (Total)
system.cpu.fetch.rateDist::mean              0.571429                       # Number of instructions fetched each cycle (Total)
system.cpu.fetch.rateDist::stdev             1.971222                       # Number of instructions fetched each cycle (Total)
system.cpu.fetch.rateDist::underflows               0      0.00%      0.00% # Number of instructions fetched each cycle (Total)
system.cpu.fetch.rateDist::0                       51     91.07%     91.07% # Number of instructions fetched each cycle (Total)
system.cpu.fetch.rateDist::1                        0      0.00%     91.07% # Number of instructions fetched each cycle (Total)
system.cpu.fetch.rateDist::2                        1      1.79%     92.86% # Number of instructions fetched each cycle (Total)
system.cpu.fetch.rateDist::3                        0      0.00%     92.86% # Number of instructions fetched each cycle (Total)
system.cpu.fetch.rateDist::4                        0      0.00%     92.86% # Number of instructions fetched each cycle (Total)
system.cpu.fetch.rateDist::5                        0      0.00%     92.86% # Number of instructions fetched each cycle (Total)
system.cpu.fetch.rateDist::6                        1      1.79%     94.64% # Number of instructions fetched each cycle (Total)
system.cpu.fetch.rateDist::7                        0      0.00%     94.64% # Number of instructions fetched each cycle (Total)
system.cpu.fetch.rateDist::8                        3      5.36%    100.00% # Number of instructions fetched each cycle (Total)
system.cpu.fetch.rateDist::overflows                0      0.00%    100.00% # Number of instructions fetched each cycle (Total)
system.cpu.fetch.rateDist::min_value                0                       # Number of instructions fetched each cycle (Total)
system.cpu.fetch.rateDist::max_value                8                       # Number of instructions fetched each cycle (Total)
system.cpu.fetch.rateDist::total                   56                       # Number of instructions fetched each cycle (Total)
system.cpu.fp_regfile_reads                        56                       # number of floating regfile reads
system.cpu.icache.ReadReq_accesses::.cpu.inst            5                       # number of ReadReq accesses(hits+misses)
system.cpu.icache.ReadReq_accesses::.switch_cpus.inst     13132399                       # number of ReadReq accesses(hits+misses)
system.cpu.icache.ReadReq_accesses::total     13132404                       # number of ReadReq accesses(hits+misses)
system.cpu.icache.ReadReq_avg_miss_latency::.cpu.inst        80600                       # average ReadReq miss latency
system.cpu.icache.ReadReq_avg_miss_latency::.switch_cpus.inst 34965.037858                       # average ReadReq miss latency
system.cpu.icache.ReadReq_avg_miss_latency::total 34967.898016                       # average ReadReq miss latency
system.cpu.icache.ReadReq_avg_mshr_miss_latency::.cpu.inst        71750                       # average ReadReq mshr miss latency
system.cpu.icache.ReadReq_avg_mshr_miss_latency::.switch_cpus.inst 32965.037858                       # average ReadReq mshr miss latency
system.cpu.icache.ReadReq_avg_mshr_miss_latency::total 32966.982551                       # average ReadReq mshr miss latency
system.cpu.icache.ReadReq_hits::.switch_cpus.inst     13052627                       # number of ReadReq hits
system.cpu.icache.ReadReq_hits::total        13052627                       # number of ReadReq hits
system.cpu.icache.ReadReq_miss_latency::.cpu.inst       403000                       # number of ReadReq miss cycles
system.cpu.icache.ReadReq_miss_latency::.switch_cpus.inst   2789231000                       # number of ReadReq miss cycles
system.cpu.icache.ReadReq_miss_latency::total   2789634000                       # number of ReadReq miss cycles
system.cpu.icache.ReadReq_miss_rate::.cpu.inst            1                       # miss rate for ReadReq accesses
system.cpu.icache.ReadReq_miss_rate::.switch_cpus.inst     0.006074                       # miss rate for ReadReq accesses
system.cpu.icache.ReadReq_miss_rate::total     0.006075                       # miss rate for ReadReq accesses
system.cpu.icache.ReadReq_misses::.cpu.inst            5                       # number of ReadReq misses
system.cpu.icache.ReadReq_misses::.switch_cpus.inst        79772                       # number of ReadReq misses
system.cpu.icache.ReadReq_misses::total         79777                       # number of ReadReq misses
system.cpu.icache.ReadReq_mshr_hits::.cpu.inst            1                       # number of ReadReq MSHR hits
system.cpu.icache.ReadReq_mshr_hits::total            1                       # number of ReadReq MSHR hits
system.cpu.icache.ReadReq_mshr_miss_latency::.cpu.inst       287000                       # number of ReadReq MSHR miss cycles
system.cpu.icache.ReadReq_mshr_miss_latency::.switch_cpus.inst   2629687000                       # number of ReadReq MSHR miss cycles
system.cpu.icache.ReadReq_mshr_miss_latency::total   2629974000                       # number of ReadReq MSHR miss cycles
system.cpu.icache.ReadReq_mshr_miss_rate::.cpu.inst     0.800000                       # mshr miss rate for ReadReq accesses
system.cpu.icache.ReadReq_mshr_miss_rate::.switch_cpus.inst     0.006074                       # mshr miss rate for ReadReq accesses
system.cpu.icache.ReadReq_mshr_miss_rate::total     0.006075                       # mshr miss rate for ReadReq accesses
system.cpu.icache.ReadReq_mshr_misses::.cpu.inst            4                       # number of ReadReq MSHR misses
system.cpu.icache.ReadReq_mshr_misses::.switch_cpus.inst        79772                       # number of ReadReq MSHR misses
system.cpu.icache.ReadReq_mshr_misses::total        79776                       # number of ReadReq MSHR misses
system.cpu.icache.avg_blocked_cycles::no_mshrs          nan                       # average number of cycles each access was blocked
system.cpu.icache.avg_blocked_cycles::no_targets          nan                       # average number of cycles each access was blocked
system.cpu.icache.blocked::no_mshrs                 0                       # number of cycles access was blocked
system.cpu.icache.blocked::no_targets               0                       # number of cycles access was blocked
system.cpu.icache.blocked_cycles::no_mshrs            0                       # number of cycles access was blocked
system.cpu.icache.blocked_cycles::no_targets            0                       # number of cycles access was blocked
system.cpu.icache.demand_accesses::.cpu.inst            5                       # number of demand (read+write) accesses
system.cpu.icache.demand_accesses::.switch_cpus.inst     13132399                       # number of demand (read+write) accesses
system.cpu.icache.demand_accesses::total     13132404                       # number of demand (read+write) accesses
system.cpu.icache.demand_avg_miss_latency::.cpu.inst        80600                       # average overall miss latency
system.cpu.icache.demand_avg_miss_latency::.switch_cpus.inst 34965.037858                       # average overall miss latency
system.cpu.icache.demand_avg_miss_latency::total 34967.898016                       # average overall miss latency
system.cpu.icache.demand_avg_mshr_miss_latency::.cpu.inst        71750                       # average overall mshr miss latency
system.cpu.icache.demand_avg_mshr_miss_latency::.switch_cpus.inst 32965.037858                       # average overall mshr miss latency
system.cpu.icache.demand_avg_mshr_miss_latency::total 32966.982551                       # average overall mshr miss latency
system.cpu.icache.demand_hits::.switch_cpus.inst     13052627                       # number of demand (read+write) hits
system.cpu.icache.demand_hits::total         13052627                       # number of demand (read+write) hits
system.cpu.icache.demand_miss_latency::.cpu.inst       403000                       # number of demand (read+write) miss cycles
system.cpu.icache.demand_miss_latency::.switch_cpus.inst   2789231000                       # number of demand (read+write) miss cycles
system.cpu.icache.demand_miss_latency::total   2789634000                       # number of demand (read+write) miss cycles
system.cpu.icache.demand_miss_rate::.cpu.inst            1                       # miss rate for demand accesses
system.cpu.icache.demand_miss_rate::.switch_cpus.inst     0.006074                       # miss rate for demand accesses
system.cpu.icache.demand_miss_rate::total     0.006075                       # miss rate for demand accesses
system.cpu.icache.demand_misses::.cpu.inst            5                       # number of demand (read+write) misses
system.cpu.icache.demand_misses::.switch_cpus.inst        79772                       # number of demand (read+write) misses
system.cpu.icache.demand_misses::total          79777                       # number of demand (read+write) misses
system.cpu.icache.demand_mshr_hits::.cpu.inst            1                       # number of demand (read+write) MSHR hits
system.cpu.icache.demand_mshr_hits::total            1                       # number of demand (read+write) MSHR hits
system.cpu.icache.demand_mshr_miss_latency::.cpu.inst       287000                       # number of demand (read+write) MSHR miss cycles
system.cpu.icache.demand_mshr_miss_latency::.switch_cpus.inst   2629687000                       # number of demand (read+write) MSHR miss cycles
system.cpu.icache.demand_mshr_miss_latency::total   2629974000                       # number of demand (read+write) MSHR miss cycles
system.cpu.icache.demand_mshr_miss_rate::.cpu.inst     0.800000                       # mshr miss rate for demand accesses
system.cpu.icache.demand_mshr_miss_rate::.switch_cpus.inst     0.006074                       # mshr miss rate for demand accesses
system.cpu.icache.demand_mshr_miss_rate::total     0.006075                       # mshr miss rate for demand accesses
system.cpu.icache.demand_mshr_misses::.cpu.inst            4                       # number of demand (read+write) MSHR misses
system.cpu.icache.demand_mshr_misses::.switch_cpus.inst        79772                       # number of demand (read+write) MSHR misses
system.cpu.icache.demand_mshr_misses::total        79776                       # number of demand (read+write) MSHR misses
system.cpu.icache.overall_accesses::.cpu.inst            5                       # number of overall (read+write) accesses
system.cpu.icache.overall_accesses::.switch_cpus.inst     13132399                       # number of overall (read+write) accesses
system.cpu.icache.overall_accesses::total     13132404                       # number of overall (read+write) accesses
system.cpu.icache.overall_avg_miss_latency::.cpu.inst        80600                       # average overall miss latency
system.cpu.icache.overall_avg_miss_latency::.switch_cpus.inst 34965.037858                       # average overall miss latency
system.cpu.icache.overall_avg_miss_latency::total 34967.898016                       # average overall miss latency
system.cpu.icache.overall_avg_mshr_miss_latency::.cpu.inst        71750                       # average overall mshr miss latency
system.cpu.icache.overall_avg_mshr_miss_latency::.switch_cpus.inst 32965.037858                       # average overall mshr miss latency
system.cpu.icache.overall_avg_mshr_miss_latency::total 32966.982551                       # average overall mshr miss latency
system.cpu.icache.overall_hits::.switch_cpus.inst     13052627                       # number of overall hits
system.cpu.icache.overall_hits::total        13052627                       # number of overall hits
system.cpu.icache.overall_miss_latency::.cpu.inst       403000                       # number of overall miss cycles
system.cpu.icache.overall_miss_latency::.switch_cpus.inst   2789231000                       # number of overall miss cycles
system.cpu.icache.overall_miss_latency::total   2789634000                       # number of overall miss cycles
system.cpu.icache.overall_miss_rate::.cpu.inst            1                       # miss rate for overall accesses
system.cpu.icache.overall_miss_rate::.switch_cpus.inst     0.006074                       # miss rate for overall accesses
system.cpu.icache.overall_miss_rate::total     0.006075                       # miss rate for overall accesses
system.cpu.icache.overall_misses::.cpu.inst            5                       # number of overall misses
system.cpu.icache.overall_misses::.switch_cpus.inst        79772                       # number of overall misses
system.cpu.icache.overall_misses::total         79777                       # number of overall misses
system.cpu.icache.overall_mshr_hits::.cpu.inst            1                       # number of overall MSHR hits
system.cpu.icache.overall_mshr_hits::total            1                       # number of overall MSHR hits
system.cpu.icache.overall_mshr_miss_latency::.cpu.inst       287000                       # number of overall MSHR miss cycles
system.cpu.icache.overall_mshr_miss_latency::.switch_cpus.inst   2629687000                       # number of overall MSHR miss cycles
system.cpu.icache.overall_mshr_miss_latency::total   2629974000                       # number of overall MSHR miss cycles
system.cpu.icache.overall_mshr_miss_rate::.cpu.inst     0.800000                       # mshr miss rate for overall accesses
system.cpu.icache.overall_mshr_miss_rate::.switch_cpus.inst     0.006074                       # mshr miss rate for overall accesses
system.cpu.icache.overall_mshr_miss_rate::total     0.006075                       # mshr miss rate for overall accesses
system.cpu.icache.overall_mshr_misses::.cpu.inst            4                       # number of overall MSHR misses
system.cpu.icache.overall_mshr_misses::.switch_cpus.inst        79772                       # number of overall MSHR misses
system.cpu.icache.overall_mshr_misses::total        79776                       # number of overall MSHR misses
system.cpu.icache.pwrStateResidencyTicks::UNDEFINED 18446744073709551616                       # Cumulative time (in ticks) in various power states
system.cpu.icache.replacements                  79520                       # number of replacements
system.cpu.icache.tags.age_task_id_blocks_1024::4          256                       # Occupied blocks per task id
system.cpu.icache.tags.avg_refs            164.615962                       # Average number of references to valid blocks.
system.cpu.icache.tags.data_accesses         26344584                       # Number of data accesses
system.cpu.icache.tags.occ_blocks::.cpu.inst          inf                       # Average occupied blocks per requestor
system.cpu.icache.tags.occ_blocks::.switch_cpus.inst          inf                       # Average occupied blocks per requestor
system.cpu.icache.tags.occ_percent::.writebacks          nan                       # Average percentage of cache occupancy
system.cpu.icache.tags.occ_percent::.functional          nan                       # Average percentage of cache occupancy
system.cpu.icache.tags.occ_percent::.interrupt          nan                       # Average percentage of cache occupancy
system.cpu.icache.tags.occ_percent::.cpu.dtb.walker          nan                       # Average percentage of cache occupancy
system.cpu.icache.tags.occ_percent::.cpu.itb.walker          nan                       # Average percentage of cache occupancy
system.cpu.icache.tags.occ_percent::.cpu.inst          inf                       # Average percentage of cache occupancy
system.cpu.icache.tags.occ_percent::.cpu.data          nan                       # Average percentage of cache occupancy
system.cpu.icache.tags.occ_percent::.l2.prefetcher          nan                       # Average percentage of cache occupancy
system.cpu.icache.tags.occ_percent::.switch_cpus.dtb.walker          nan                       # Average percentage of cache occupancy
system.cpu.icache.tags.occ_percent::.switch_cpus.itb.walker          nan                       # Average percentage of cache occupancy
system.cpu.icache.tags.occ_percent::.switch_cpus.inst          inf                       # Average percentage of cache occupancy
system.cpu.icache.tags.occ_percent::.switch_cpus.data          nan                       # Average percentage of cache occupancy
system.cpu.icache.tags.occ_percent::.switch_cpus_1.dtb.walker          nan                       # Average percentage of cache occupancy
system.cpu.icache.tags.occ_percent::.switch_cpus_1.itb.walker          nan                       # Average percentage of cache occupancy
system.cpu.icache.tags.occ_percent::.switch_cpus_1.inst          nan                       # Average percentage of cache occupancy
system.cpu.icache.tags.occ_percent::.switch_cpus_1.data          nan                       # Average percentage of cache occupancy
system.cpu.icache.tags.occ_percent::total          nan                       # Average percentage of cache occupancy
system.cpu.icache.tags.occ_task_id_blocks::1024          256                       # Occupied blocks per task id
system.cpu.icache.tags.occ_task_id_percent::1024            1                       # Percentage of cache occupancy per task id
system.cpu.icache.tags.pwrStateResidencyTicks::UNDEFINED 18446744073709551616                       # Cumulative time (in ticks) in various power states
system.cpu.icache.tags.sampled_refs             79776                       # Sample count of references to valid blocks.
system.cpu.icache.tags.tag_accesses          26344584                       # Number of tag accesses
system.cpu.icache.tags.tagsinuse                  inf                       # Cycle average of tags in use
system.cpu.icache.tags.total_refs            13132403                       # Total number of references to valid blocks.
system.cpu.icache.tags.warmup_cycle            108000                       # Cycle when the warmup percentage was hit.
system.cpu.icache.writebacks::.writebacks        79520                       # number of writebacks
system.cpu.icache.writebacks::total             79520                       # number of writebacks
system.cpu.idleCycles                             211                       # Total number of cycles that the CPU has spent unscheduled due to idling
system.cpu.iew.branchMispredicts                    1                       # Number of branch mispredicts detected at execute
system.cpu.iew.exec_branches                        1                       # Number of branches executed
system.cpu.iew.exec_nop                             0                       # number of nop insts executed
system.cpu.iew.exec_rate                     0.078652                       # Inst execution rate
system.cpu.iew.exec_refs                            7                       # number of memory reference insts executed
system.cpu.iew.exec_stores                          5                       # Number of stores executed
system.cpu.iew.exec_swp                             0                       # number of swp insts executed
system.cpu.iew.iewBlockCycles                       2                       # Number of cycles IEW is blocking
system.cpu.iew.iewDispLoadInsts                     2                       # Number of dispatched load instructions
system.cpu.iew.iewDispNonSpecInsts                  0                       # Number of dispatched non-speculative instructions
system.cpu.iew.iewDispSquashedInsts                 0                       # Number of squashed instructions skipped by dispatch
system.cpu.iew.iewDispStoreInsts                    8                       # Number of dispatched store instructions
system.cpu.iew.iewDispatchedInsts                  32                       # Number of instructions dispatched to IQ
system.cpu.iew.iewExecLoadInsts                     2                       # Number of load instructions executed
system.cpu.iew.iewExecSquashedInsts                 3                       # Number of squashed instructions skipped in execute
system.cpu.iew.iewExecutedInsts                    21                       # Number of executed instructions
system.cpu.iew.iewIQFullEvents                      0                       # Number of times the IQ has become full, causing a stall
system.cpu.iew.iewIdleCycles                        0                       # Number of cycles IEW is idle
system.cpu.iew.iewLSQFullEvents                     0                       # Number of times the LSQ has become full, causing a stall
system.cpu.iew.iewSquashCycles                      3                       # Number of cycles IEW is squashing
system.cpu.iew.iewUnblockCycles                     0                       # Number of cycles IEW is unblocking
system.cpu.iew.lsq.thread0.blockedLoads             0                       # Number of blocked loads due to partial load-store forwarding
system.cpu.iew.lsq.thread0.cacheBlocked             0                       # Number of times an access to memory failed due to the cache being blocked
system.cpu.iew.lsq.thread0.forwLoads                1                       # Number of loads that had data forwarded from stores
system.cpu.iew.lsq.thread0.ignoredResponses            0                       # Number of memory responses ignored because the instruction is squashed
system.cpu.iew.lsq.thread0.invAddrLoads             0                       # Number of loads ignored due to an invalid address
system.cpu.iew.lsq.thread0.invAddrSwpfs             0                       # Number of software prefetches ignored due to an invalid address
system.cpu.iew.lsq.thread0.memOrderViolation            0                       # Number of memory ordering violations
system.cpu.iew.lsq.thread0.rescheduledLoads            0                       # Number of loads that were rescheduled
system.cpu.iew.lsq.thread0.squashedLoads            2                       # Number of loads squashed
system.cpu.iew.lsq.thread0.squashedStores            6                       # Number of stores squashed
system.cpu.iew.memOrderViolationEvents              0                       # Number of memory order violations
system.cpu.iew.predictedNotTakenIncorrect            1                       # Number of branches that were predicted not taken incorrectly
system.cpu.iew.predictedTakenIncorrect              0                       # Number of branches that were predicted taken incorrectly
system.cpu.iew.wb_consumers                        18                       # num instructions consuming a value
system.cpu.iew.wb_count                            20                       # cumulative count of insts written-back
system.cpu.iew.wb_fanout                     0.555556                       # average fanout of values written-back
system.cpu.iew.wb_producers                        10                       # num instructions producing a value
system.cpu.iew.wb_rate                       0.074906                       # insts written-back per cycle
system.cpu.iew.wb_sent                             20                       # cumulative count of insts sent to commit
system.cpu.int_regfile_reads                       77                       # number of integer regfile reads
system.cpu.int_regfile_writes                      14                       # number of integer regfile writes
system.cpu.interrupts.pwrStateResidencyTicks::UNDEFINED 18446744073709551616                       # Cumulative time (in ticks) in various power states
system.cpu.ipc                               0.011236                       # IPC: Instructions Per Cycle
system.cpu.ipc_total                         0.011236                       # IPC: Total IPC of All Threads
system.cpu.iq.FU_type_0::No_OpClass                 0      0.00%      0.00% # Type of FU issued
system.cpu.iq.FU_type_0::IntAlu                    16     66.67%     66.67% # Type of FU issued
system.cpu.iq.FU_type_0::IntMult                    0      0.00%     66.67% # Type of FU issued
system.cpu.iq.FU_type_0::IntDiv                     0      0.00%     66.67% # Type of FU issued
system.cpu.iq.FU_type_0::FloatAdd                   0      0.00%     66.67% # Type of FU issued
system.cpu.iq.FU_type_0::FloatCmp                   0      0.00%     66.67% # Type of FU issued
system.cpu.iq.FU_type_0::FloatCvt                   0      0.00%     66.67% # Type of FU issued
system.cpu.iq.FU_type_0::FloatMult                  0      0.00%     66.67% # Type of FU issued
system.cpu.iq.FU_type_0::FloatMultAcc               0      0.00%     66.67% # Type of FU issued
system.cpu.iq.FU_type_0::FloatDiv                   0      0.00%     66.67% # Type of FU issued
system.cpu.iq.FU_type_0::FloatMisc                  0      0.00%     66.67% # Type of FU issued
system.cpu.iq.FU_type_0::FloatSqrt                  0      0.00%     66.67% # Type of FU issued
system.cpu.iq.FU_type_0::SimdAdd                    0      0.00%     66.67% # Type of FU issued
system.cpu.iq.FU_type_0::SimdAddAcc                 0      0.00%     66.67% # Type of FU issued
system.cpu.iq.FU_type_0::SimdAlu                    0      0.00%     66.67% # Type of FU issued
system.cpu.iq.FU_type_0::SimdCmp                    0      0.00%     66.67% # Type of FU issued
system.cpu.iq.FU_type_0::SimdCvt                    0      0.00%     66.67% # Type of FU issued
system.cpu.iq.FU_type_0::SimdMisc                   0      0.00%     66.67% # Type of FU issued
system.cpu.iq.FU_type_0::SimdMult                   0      0.00%     66.67% # Type of FU issued
system.cpu.iq.FU_type_0::SimdMultAcc                0      0.00%     66.67% # Type of FU issued
system.cpu.iq.FU_type_0::SimdShift                  0      0.00%     66.67% # Type of FU issued
system.cpu.iq.FU_type_0::SimdShiftAcc               0      0.00%     66.67% # Type of FU issued
system.cpu.iq.FU_type_0::SimdDiv                    0      0.00%     66.67% # Type of FU issued
system.cpu.iq.FU_type_0::SimdSqrt                   0      0.00%     66.67% # Type of FU issued
system.cpu.iq.FU_type_0::SimdFloatAdd               0      0.00%     66.67% # Type of FU issued
system.cpu.iq.FU_type_0::SimdFloatAlu               0      0.00%     66.67% # Type of FU issued
system.cpu.iq.FU_type_0::SimdFloatCmp               0      0.00%     66.67% # Type of FU issued
system.cpu.iq.FU_type_0::SimdFloatCvt               0      0.00%     66.67% # Type of FU issued
system.cpu.iq.FU_type_0::SimdFloatDiv               0      0.00%     66.67% # Type of FU issued
system.cpu.iq.FU_type_0::SimdFloatMisc              0      0.00%     66.67% # Type of FU issued
system.cpu.iq.FU_type_0::SimdFloatMult              0      0.00%     66.67% # Type of FU issued
system.cpu.iq.FU_type_0::SimdFloatMultAcc            0      0.00%     66.67% # Type of FU issued
system.cpu.iq.FU_type_0::SimdFloatSqrt              0      0.00%     66.67% # Type of FU issued
system.cpu.iq.FU_type_0::SimdReduceAdd              0      0.00%     66.67% # Type of FU issued
system.cpu.iq.FU_type_0::SimdReduceAlu              0      0.00%     66.67% # Type of FU issued
system.cpu.iq.FU_type_0::SimdReduceCmp              0      0.00%     66.67% # Type of FU issued
system.cpu.iq.FU_type_0::SimdFloatReduceAdd            0      0.00%     66.67% # Type of FU issued
system.cpu.iq.FU_type_0::SimdFloatReduceCmp            0      0.00%     66.67% # Type of FU issued
system.cpu.iq.FU_type_0::SimdAes                    0      0.00%     66.67% # Type of FU issued
system.cpu.iq.FU_type_0::SimdAesMix                 0      0.00%     66.67% # Type of FU issued
system.cpu.iq.FU_type_0::SimdSha1Hash               0      0.00%     66.67% # Type of FU issued
system.cpu.iq.FU_type_0::SimdSha1Hash2              0      0.00%     66.67% # Type of FU issued
system.cpu.iq.FU_type_0::SimdSha256Hash             0      0.00%     66.67% # Type of FU issued
system.cpu.iq.FU_type_0::SimdSha256Hash2            0      0.00%     66.67% # Type of FU issued
system.cpu.iq.FU_type_0::SimdShaSigma2              0      0.00%     66.67% # Type of FU issued
system.cpu.iq.FU_type_0::SimdShaSigma3              0      0.00%     66.67% # Type of FU issued
system.cpu.iq.FU_type_0::SimdPredAlu                0      0.00%     66.67% # Type of FU issued
system.cpu.iq.FU_type_0::MemRead                    2      8.33%     75.00% # Type of FU issued
system.cpu.iq.FU_type_0::MemWrite                   6     25.00%    100.00% # Type of FU issued
system.cpu.iq.FU_type_0::FloatMemRead               0      0.00%    100.00% # Type of FU issued
system.cpu.iq.FU_type_0::FloatMemWrite              0      0.00%    100.00% # Type of FU issued
system.cpu.iq.FU_type_0::IprAccess                  0      0.00%    100.00% # Type of FU issued
system.cpu.iq.FU_type_0::InstPrefetch               0      0.00%    100.00% # Type of FU issued
system.cpu.iq.FU_type_0::total                     24                       # Type of FU issued
system.cpu.iq.fp_alu_accesses                       0                       # Number of floating point alu accesses
system.cpu.iq.fp_inst_queue_reads                   0                       # Number of floating instruction queue reads
system.cpu.iq.fp_inst_queue_wakeup_accesses            0                       # Number of floating instruction queue wakeup accesses
system.cpu.iq.fp_inst_queue_writes                  0                       # Number of floating instruction queue writes
system.cpu.iq.fu_busy_cnt                           0                       # FU busy when requested
system.cpu.iq.fu_busy_rate                          0                       # FU busy rate (busy events/executed inst)
system.cpu.iq.fu_full::No_OpClass                   0                       # attempts to use FU when none available
system.cpu.iq.fu_full::IntAlu                       0                       # attempts to use FU when none available
system.cpu.iq.fu_full::IntMult                      0                       # attempts to use FU when none available
system.cpu.iq.fu_full::IntDiv                       0                       # attempts to use FU when none available
system.cpu.iq.fu_full::FloatAdd                     0                       # attempts to use FU when none available
system.cpu.iq.fu_full::FloatCmp                     0                       # attempts to use FU when none available
system.cpu.iq.fu_full::FloatCvt                     0                       # attempts to use FU when none available
system.cpu.iq.fu_full::FloatMult                    0                       # attempts to use FU when none available
system.cpu.iq.fu_full::FloatMultAcc                 0                       # attempts to use FU when none available
system.cpu.iq.fu_full::FloatDiv                     0                       # attempts to use FU when none available
system.cpu.iq.fu_full::FloatMisc                    0                       # attempts to use FU when none available
system.cpu.iq.fu_full::FloatSqrt                    0                       # attempts to use FU when none available
system.cpu.iq.fu_full::SimdAdd                      0                       # attempts to use FU when none available
system.cpu.iq.fu_full::SimdAddAcc                   0                       # attempts to use FU when none available
system.cpu.iq.fu_full::SimdAlu                      0                       # attempts to use FU when none available
system.cpu.iq.fu_full::SimdCmp                      0                       # attempts to use FU when none available
system.cpu.iq.fu_full::SimdCvt                      0                       # attempts to use FU when none available
system.cpu.iq.fu_full::SimdMisc                     0                       # attempts to use FU when none available
system.cpu.iq.fu_full::SimdMult                     0                       # attempts to use FU when none available
system.cpu.iq.fu_full::SimdMultAcc                  0                       # attempts to use FU when none available
system.cpu.iq.fu_full::SimdShift                    0                       # attempts to use FU when none available
system.cpu.iq.fu_full::SimdShiftAcc                 0                       # attempts to use FU when none available
system.cpu.iq.fu_full::SimdDiv                      0                       # attempts to use FU when none available
system.cpu.iq.fu_full::SimdSqrt                     0                       # attempts to use FU when none available
system.cpu.iq.fu_full::SimdFloatAdd                 0                       # attempts to use FU when none available
system.cpu.iq.fu_full::SimdFloatAlu                 0                       # attempts to use FU when none available
system.cpu.iq.fu_full::SimdFloatCmp                 0                       # attempts to use FU when none available
system.cpu.iq.fu_full::SimdFloatCvt                 0                       # attempts to use FU when none available
system.cpu.iq.fu_full::SimdFloatDiv                 0                       # attempts to use FU when none available
system.cpu.iq.fu_full::SimdFloatMisc                0                       # attempts to use FU when none available
system.cpu.iq.fu_full::SimdFloatMult                0                       # attempts to use FU when none available
system.cpu.iq.fu_full::SimdFloatMultAcc             0                       # attempts to use FU when none available
system.cpu.iq.fu_full::SimdFloatSqrt                0                       # attempts to use FU when none available
system.cpu.iq.fu_full::SimdReduceAdd                0                       # attempts to use FU when none available
system.cpu.iq.fu_full::SimdReduceAlu                0                       # attempts to use FU when none available
system.cpu.iq.fu_full::SimdReduceCmp                0                       # attempts to use FU when none available
system.cpu.iq.fu_full::SimdFloatReduceAdd            0                       # attempts to use FU when none available
system.cpu.iq.fu_full::SimdFloatReduceCmp            0                       # attempts to use FU when none available
system.cpu.iq.fu_full::SimdAes                      0                       # attempts to use FU when none available
system.cpu.iq.fu_full::SimdAesMix                   0                       # attempts to use FU when none available
system.cpu.iq.fu_full::SimdSha1Hash                 0                       # attempts to use FU when none available
system.cpu.iq.fu_full::SimdSha1Hash2                0                       # attempts to use FU when none available
system.cpu.iq.fu_full::SimdSha256Hash               0                       # attempts to use FU when none available
system.cpu.iq.fu_full::SimdSha256Hash2              0                       # attempts to use FU when none available
system.cpu.iq.fu_full::SimdShaSigma2                0                       # attempts to use FU when none available
system.cpu.iq.fu_full::SimdShaSigma3                0                       # attempts to use FU when none available
system.cpu.iq.fu_full::SimdPredAlu                  0                       # attempts to use FU when none available
system.cpu.iq.fu_full::MemRead                      0                       # attempts to use FU when none available
system.cpu.iq.fu_full::MemWrite                     0                       # attempts to use FU when none available
system.cpu.iq.fu_full::FloatMemRead                 0                       # attempts to use FU when none available
system.cpu.iq.fu_full::FloatMemWrite                0                       # attempts to use FU when none available
system.cpu.iq.fu_full::IprAccess                    0                       # attempts to use FU when none available
system.cpu.iq.fu_full::InstPrefetch                 0                       # attempts to use FU when none available
system.cpu.iq.int_alu_accesses                     24                       # Number of integer alu accesses
system.cpu.iq.int_inst_queue_reads                104                       # Number of integer instruction queue reads
system.cpu.iq.int_inst_queue_wakeup_accesses           20                       # Number of integer instruction queue wakeup accesses
system.cpu.iq.int_inst_queue_writes                56                       # Number of integer instruction queue writes
system.cpu.iq.iqInstsAdded                         32                       # Number of instructions added to the IQ (excludes non-spec)
system.cpu.iq.iqInstsIssued                        24                       # Number of instructions issued
system.cpu.iq.iqSquashedInstsExamined              24                       # Number of squashed instructions iterated over during squash; mainly for profiling
system.cpu.iq.iqSquashedOperandsExamined           28                       # Number of squashed operands that are examined and possibly removed from graph
system.cpu.iq.issued_per_cycle::samples            56                       # Number of insts issued each cycle
system.cpu.iq.issued_per_cycle::mean         0.428571                       # Number of insts issued each cycle
system.cpu.iq.issued_per_cycle::stdev        1.233725                       # Number of insts issued each cycle
system.cpu.iq.issued_per_cycle::underflows            0      0.00%      0.00% # Number of insts issued each cycle
system.cpu.iq.issued_per_cycle::0                  48     85.71%     85.71% # Number of insts issued each cycle
system.cpu.iq.issued_per_cycle::1                   1      1.79%     87.50% # Number of insts issued each cycle
system.cpu.iq.issued_per_cycle::2                   4      7.14%     94.64% # Number of insts issued each cycle
system.cpu.iq.issued_per_cycle::3                   0      0.00%     94.64% # Number of insts issued each cycle
system.cpu.iq.issued_per_cycle::4                   1      1.79%     96.43% # Number of insts issued each cycle
system.cpu.iq.issued_per_cycle::5                   1      1.79%     98.21% # Number of insts issued each cycle
system.cpu.iq.issued_per_cycle::6                   1      1.79%    100.00% # Number of insts issued each cycle
system.cpu.iq.issued_per_cycle::7                   0      0.00%    100.00% # Number of insts issued each cycle
system.cpu.iq.issued_per_cycle::8                   0      0.00%    100.00% # Number of insts issued each cycle
system.cpu.iq.issued_per_cycle::overflows            0      0.00%    100.00% # Number of insts issued each cycle
system.cpu.iq.issued_per_cycle::min_value            0                       # Number of insts issued each cycle
system.cpu.iq.issued_per_cycle::max_value            6                       # Number of insts issued each cycle
system.cpu.iq.issued_per_cycle::total              56                       # Number of insts issued each cycle
system.cpu.iq.rate                           0.089888                       # Inst issue rate
system.cpu.iq.vec_alu_accesses                      0                       # Number of vector alu accesses
system.cpu.iq.vec_inst_queue_reads                  0                       # Number of vector instruction queue reads
system.cpu.iq.vec_inst_queue_wakeup_accesses            0                       # Number of vector instruction queue wakeup accesses
system.cpu.iq.vec_inst_queue_writes                 0                       # Number of vector instruction queue writes
system.cpu.itb.rdAccesses                           0                       # TLB accesses on read requests
system.cpu.itb.rdMisses                             0                       # TLB misses on read requests
system.cpu.itb.walker.pwrStateResidencyTicks::UNDEFINED 18446744073709551616                       # Cumulative time (in ticks) in various power states
system.cpu.itb.wrAccesses                           5                       # TLB accesses on write requests
system.cpu.itb.wrMisses                             1                       # TLB misses on write requests
system.cpu.itb_walker_cache.avg_blocked_cycles::no_mshrs          nan                       # average number of cycles each access was blocked
system.cpu.itb_walker_cache.avg_blocked_cycles::no_targets          nan                       # average number of cycles each access was blocked
[...]
system.switch_cpus_1.iq.FU_type_0::SimdReduceAlu            0                       # Type of FU issued
system.switch_cpus_1.iq.FU_type_0::SimdReduceCmp            0                       # Type of FU issued
system.switch_cpus_1.iq.FU_type_0::SimdFloatReduceAdd            0                       # Type of FU issued
system.switch_cpus_1.iq.FU_type_0::SimdFloatReduceCmp            0                       # Type of FU issued
system.switch_cpus_1.iq.FU_type_0::SimdAes            0                       # Type of FU issued
system.switch_cpus_1.iq.FU_type_0::SimdAesMix            0                       # Type of FU issued
system.switch_cpus_1.iq.FU_type_0::SimdSha1Hash            0                       # Type of FU issued
system.switch_cpus_1.iq.FU_type_0::SimdSha1Hash2            0                       # Type of FU issued
system.switch_cpus_1.iq.FU_type_0::SimdSha256Hash            0                       # Type of FU issued
system.switch_cpus_1.iq.FU_type_0::SimdSha256Hash2            0                       # Type of FU issued
system.switch_cpus_1.iq.FU_type_0::SimdShaSigma2            0                       # Type of FU issued
system.switch_cpus_1.iq.FU_type_0::SimdShaSigma3            0                       # Type of FU issued
system.switch_cpus_1.iq.FU_type_0::SimdPredAlu            0                       # Type of FU issued
system.switch_cpus_1.iq.FU_type_0::MemRead            0                       # Type of FU issued
system.switch_cpus_1.iq.FU_type_0::MemWrite            0                       # Type of FU issued
system.switch_cpus_1.iq.FU_type_0::FloatMemRead            0                       # Type of FU issued
system.switch_cpus_1.iq.FU_type_0::FloatMemWrite            0                       # Type of FU issued
system.switch_cpus_1.iq.FU_type_0::IprAccess            0                       # Type of FU issued
system.switch_cpus_1.iq.FU_type_0::InstPrefetch            0                       # Type of FU issued
system.switch_cpus_1.iq.FU_type_0::total            0                       # Type of FU issued
system.switch_cpus_1.iq.fp_alu_accesses             0                       # Number of floating point alu accesses
system.switch_cpus_1.iq.fp_inst_queue_reads            0                       # Number of floating instruction queue reads
system.switch_cpus_1.iq.fp_inst_queue_wakeup_accesses            0                       # Number of floating instruction queue wakeup accesses
system.switch_cpus_1.iq.fp_inst_queue_writes            0                       # Number of floating instruction queue writes
system.switch_cpus_1.iq.fu_busy_cnt                 0                       # FU busy when requested
system.switch_cpus_1.iq.fu_busy_rate              nan                       # FU busy rate (busy events/executed inst)
system.switch_cpus_1.iq.fu_full::No_OpClass            0                       # attempts to use FU when none available
system.switch_cpus_1.iq.fu_full::IntAlu             0                       # attempts to use FU when none available
system.switch_cpus_1.iq.fu_full::IntMult            0                       # attempts to use FU when none available
system.switch_cpus_1.iq.fu_full::IntDiv             0                       # attempts to use FU when none available
system.switch_cpus_1.iq.fu_full::FloatAdd            0                       # attempts to use FU when none available
system.switch_cpus_1.iq.fu_full::FloatCmp            0                       # attempts to use FU when none available
system.switch_cpus_1.iq.fu_full::FloatCvt            0                       # attempts to use FU when none available
system.switch_cpus_1.iq.fu_full::FloatMult            0                       # attempts to use FU when none available
system.switch_cpus_1.iq.fu_full::FloatMultAcc            0                       # attempts to use FU when none available
system.switch_cpus_1.iq.fu_full::FloatDiv            0                       # attempts to use FU when none available
system.switch_cpus_1.iq.fu_full::FloatMisc            0                       # attempts to use FU when none available
system.switch_cpus_1.iq.fu_full::FloatSqrt            0                       # attempts to use FU when none available
system.switch_cpus_1.iq.fu_full::SimdAdd            0                       # attempts to use FU when none available
system.switch_cpus_1.iq.fu_full::SimdAddAcc            0                       # attempts to use FU when none available
system.switch_cpus_1.iq.fu_full::SimdAlu            0                       # attempts to use FU when none available
system.switch_cpus_1.iq.fu_full::SimdCmp            0                       # attempts to use FU when none available
system.switch_cpus_1.iq.fu_full::SimdCvt            0                       # attempts to use FU when none available
system.switch_cpus_1.iq.fu_full::SimdMisc            0                       # attempts to use FU when none available
system.switch_cpus_1.iq.fu_full::SimdMult            0                       # attempts to use FU when none available
system.switch_cpus_1.iq.fu_full::SimdMultAcc            0                       # attempts to use FU when none available
system.switch_cpus_1.iq.fu_full::SimdShift            0                       # attempts to use FU when none available
system.switch_cpus_1.iq.fu_full::SimdShiftAcc            0                       # attempts to use FU when none available
system.switch_cpus_1.iq.fu_full::SimdDiv            0                       # attempts to use FU when none available
system.switch_cpus_1.iq.fu_full::SimdSqrt            0                       # attempts to use FU when none available
system.switch_cpus_1.iq.fu_full::SimdFloatAdd            0                       # attempts to use FU when none available
system.switch_cpus_1.iq.fu_full::SimdFloatAlu            0                       # attempts to use FU when none available
system.switch_cpus_1.iq.fu_full::SimdFloatCmp            0                       # attempts to use FU when none available
system.switch_cpus_1.iq.fu_full::SimdFloatCvt            0                       # attempts to use FU when none available
system.switch_cpus_1.iq.fu_full::SimdFloatDiv            0                       # attempts to use FU when none available
system.switch_cpus_1.iq.fu_full::SimdFloatMisc            0                       # attempts to use FU when none available
system.switch_cpus_1.iq.fu_full::SimdFloatMult            0                       # attempts to use FU when none available
system.switch_cpus_1.iq.fu_full::SimdFloatMultAcc            0                       # attempts to use FU when none available
system.switch_cpus_1.iq.fu_full::SimdFloatSqrt            0                       # attempts to use FU when none available
system.switch_cpus_1.iq.fu_full::SimdReduceAdd            0                       # attempts to use FU when none available
system.switch_cpus_1.iq.fu_full::SimdReduceAlu            0                       # attempts to use FU when none available
system.switch_cpus_1.iq.fu_full::SimdReduceCmp            0                       # attempts to use FU when none available
system.switch_cpus_1.iq.fu_full::SimdFloatReduceAdd            0                       # attempts to use FU when none available
system.switch_cpus_1.iq.fu_full::SimdFloatReduceCmp            0                       # attempts to use FU when none available
system.switch_cpus_1.iq.fu_full::SimdAes            0                       # attempts to use FU when none available
system.switch_cpus_1.iq.fu_full::SimdAesMix            0                       # attempts to use FU when none available
system.switch_cpus_1.iq.fu_full::SimdSha1Hash            0                       # attempts to use FU when none available
system.switch_cpus_1.iq.fu_full::SimdSha1Hash2            0                       # attempts to use FU when none available
system.switch_cpus_1.iq.fu_full::SimdSha256Hash            0                       # attempts to use FU when none available
system.switch_cpus_1.iq.fu_full::SimdSha256Hash2            0                       # attempts to use FU when none available
system.switch_cpus_1.iq.fu_full::SimdShaSigma2            0                       # attempts to use FU when none available
system.switch_cpus_1.iq.fu_full::SimdShaSigma3            0                       # attempts to use FU when none available
system.switch_cpus_1.iq.fu_full::SimdPredAlu            0                       # attempts to use FU when none available
system.switch_cpus_1.iq.fu_full::MemRead            0                       # attempts to use FU when none available
system.switch_cpus_1.iq.fu_full::MemWrite            0                       # attempts to use FU when none available
system.switch_cpus_1.iq.fu_full::FloatMemRead            0                       # attempts to use FU when none available
system.switch_cpus_1.iq.fu_full::FloatMemWrite            0                       # attempts to use FU when none available
system.switch_cpus_1.iq.fu_full::IprAccess            0                       # attempts to use FU when none available
system.switch_cpus_1.iq.fu_full::InstPrefetch            0                       # attempts to use FU when none available
system.switch_cpus_1.iq.int_alu_accesses            0                       # Number of integer alu accesses
system.switch_cpus_1.iq.int_inst_queue_reads            0                       # Number of integer instruction queue reads
system.switch_cpus_1.iq.int_inst_queue_wakeup_accesses            0                       # Number of integer instruction queue wakeup accesses
system.switch_cpus_1.iq.int_inst_queue_writes            0                       # Number of integer instruction queue writes
system.switch_cpus_1.iq.issued_per_cycle::samples            0                       # Number of insts issued each cycle
system.switch_cpus_1.iq.issued_per_cycle::mean          nan                       # Number of insts issued each cycle
system.switch_cpus_1.iq.issued_per_cycle::stdev          nan                       # Number of insts issued each cycle
system.switch_cpus_1.iq.issued_per_cycle::underflows            0                       # Number of insts issued each cycle
system.switch_cpus_1.iq.issued_per_cycle::0            0                       # Number of insts issued each cycle
system.switch_cpus_1.iq.issued_per_cycle::1            0                       # Number of insts issued each cycle
system.switch_cpus_1.iq.issued_per_cycle::2            0                       # Number of insts issued each cycle
system.switch_cpus_1.iq.issued_per_cycle::3            0                       # Number of insts issued each cycle
system.switch_cpus_1.iq.issued_per_cycle::4            0                       # Number of insts issued each cycle
system.switch_cpus_1.iq.issued_per_cycle::5            0                       # Number of insts issued each cycle
system.switch_cpus_1.iq.issued_per_cycle::6            0                       # Number of insts issued each cycle
system.switch_cpus_1.iq.issued_per_cycle::7            0                       # Number of insts issued each cycle
system.switch_cpus_1.iq.issued_per_cycle::8            0                       # Number of insts issued each cycle
system.switch_cpus_1.iq.issued_per_cycle::overflows            0                       # Number of insts issued each cycle
system.switch_cpus_1.iq.issued_per_cycle::min_value            0                       # Number of insts issued each cycle
system.switch_cpus_1.iq.issued_per_cycle::max_value            0                       # Number of insts issued each cycle
system.switch_cpus_1.iq.issued_per_cycle::total            0                       # Number of insts issued each cycle
system.switch_cpus_1.iq.rate                      nan                       # Inst issue rate
system.switch_cpus_1.iq.vec_alu_accesses            0                       # Number of vector alu accesses
system.switch_cpus_1.iq.vec_inst_queue_reads            0                       # Number of vector instruction queue reads
system.switch_cpus_1.iq.vec_inst_queue_wakeup_accesses            0                       # Number of vector instruction queue wakeup accesses
system.switch_cpus_1.iq.vec_inst_queue_writes            0                       # Number of vector instruction queue writes
system.switch_cpus_1.itb.rdAccesses                 0                       # TLB accesses on read requests
system.switch_cpus_1.itb.rdMisses                   0                       # TLB misses on read requests
system.switch_cpus_1.itb.walker.pwrStateResidencyTicks::UNDEFINED 18446744073709551616                       # Cumulative time (in ticks) in various power states
system.switch_cpus_1.itb.wrAccesses                 0                       # TLB accesses on write requests
system.switch_cpus_1.itb.wrMisses                   0                       # TLB misses on write requests
system.switch_cpus_1.memDep0.conflictingLoads            0                       # Number of conflicting loads.
system.switch_cpus_1.memDep0.conflictingStores            0                       # Number of conflicting stores.
system.switch_cpus_1.memDep0.insertedLoads            0                       # Number of loads inserted to the mem dependence unit.
system.switch_cpus_1.memDep0.insertedStores            0                       # Number of stores inserted to the mem dependence unit.
system.switch_cpus_1.misc_regfile_writes            1                       # number of misc regfile writes
system.switch_cpus_1.numCycles                      0                       # number of cpu cycles simulated
system.switch_cpus_1.numWorkItemsCompleted            0                       # number of work items this cpu completed
system.switch_cpus_1.numWorkItemsStarted            0                       # number of work items this cpu started
system.switch_cpus_1.pwrStateResidencyTicks::OFF 18446744073709551616                       # Cumulative time (in ticks) in various power states
system.switch_cpus_1.rename.serializeStallCycles            0                       # count of cycles rename stalled for serializing inst
system.switch_cpus_1.rename.serializingInsts            0                       # count of serializing insts renamed
system.switch_cpus_1.rename.skidInsts               0                       # count of insts added to the skid buffer
system.switch_cpus_1.rename.tempSerializingInsts            0                       # count of temporary serializing insts renamed
system.switch_cpus_1.rob.rob_reads                  0                       # The number of ROB reads
system.switch_cpus_1.rob.rob_writes                 0                       # The number of ROB writes
system.tol2bus.pkt_count_system.cpu.icache.mem_side::system.l2.cpu_side       239072                       # Packet count per connected master and slave (bytes)
system.tol2bus.pkt_count_system.cpu.dcache.mem_side::system.l2.cpu_side       212273                       # Packet count per connected master and slave (bytes)
system.tol2bus.pkt_count::total                451345                       # Packet count per connected master and slave (bytes)
system.tol2bus.pkt_size_system.cpu.icache.mem_side::system.l2.cpu_side     10194944                       # Cumulative packet size per connected master and slave (bytes)
system.tol2bus.pkt_size_system.cpu.dcache.mem_side::system.l2.cpu_side      7344384                       # Cumulative packet size per connected master and slave (bytes)
system.tol2bus.pkt_size::total               17539328                       # Cumulative packet size per connected master and slave (bytes)
system.tol2bus.pwrStateResidencyTicks::UNDEFINED 18446744073709551616                       # Cumulative time (in ticks) in various power states
system.tol2bus.reqLayer0.occupancy          546824000                       # Layer occupancy (ticks)
system.tol2bus.reqLayer0.utilization              0.0                       # Layer utilization (%)
system.tol2bus.respLayer0.occupancy         239328000                       # Layer occupancy (ticks)
system.tol2bus.respLayer0.utilization             0.0                       # Layer utilization (%)
system.tol2bus.respLayer1.occupancy         213297000                       # Layer occupancy (ticks)
system.tol2bus.respLayer1.utilization             0.0                       # Layer utilization (%)
system.tol2bus.snoopTraffic                   2477568                       # Total snoop traffic (bytes)
system.tol2bus.snoop_fanout::samples           217049                       # Request fanout histogram
system.tol2bus.snoop_fanout::mean            0.010878                       # Request fanout histogram
system.tol2bus.snoop_fanout::stdev           0.103728                       # Request fanout histogram
system.tol2bus.snoop_fanout::underflows             0      0.00%      0.00% # Request fanout histogram
system.tol2bus.snoop_fanout::0                 214688     98.91%     98.91% # Request fanout histogram
system.tol2bus.snoop_fanout::1                   2361      1.09%    100.00% # Request fanout histogram
system.tol2bus.snoop_fanout::2                      0      0.00%    100.00% # Request fanout histogram
system.tol2bus.snoop_fanout::3                      0      0.00%    100.00% # Request fanout histogram
system.tol2bus.snoop_fanout::4                      0      0.00%    100.00% # Request fanout histogram
system.tol2bus.snoop_fanout::overflows              0      0.00%    100.00% # Request fanout histogram
system.tol2bus.snoop_fanout::min_value              0                       # Request fanout histogram
system.tol2bus.snoop_fanout::max_value              1                       # Request fanout histogram
system.tol2bus.snoop_fanout::total             217049                       # Request fanout histogram
system.tol2bus.snoop_filter.hit_multi_requests            6                       # Number of requests hitting in the snoop filter with multiple (>1) holders of the requested data.
system.tol2bus.snoop_filter.hit_multi_snoops            0                       # Number of snoops hitting in the snoop filter with multiple (>1) holders of the requested data.
system.tol2bus.snoop_filter.hit_single_requests       149595                       # Number of requests hitting in the snoop filter with a single holder of the requested data.
system.tol2bus.snoop_filter.hit_single_snoops         2355                       # Number of snoops hitting in the snoop filter with a single holder of the requested data.
system.tol2bus.snoop_filter.tot_requests       300470                       # Total number of requests made to the snoop filter.
system.tol2bus.snoop_filter.tot_snoops           2355                       # Total number of snoops made to the snoop filter.
system.tol2bus.snoops                           66174                       # Total snoops (count)
system.tol2bus.trans_dist::ReadResp            118399                       # Transaction distribution
system.tol2bus.trans_dist::WritebackDirty        82369                       # Transaction distribution
system.tol2bus.trans_dist::WritebackClean        79520                       # Transaction distribution
system.tol2bus.trans_dist::CleanEvict           53342                       # Transaction distribution
system.tol2bus.trans_dist::HardPFReq              538                       # Transaction distribution
system.tol2bus.trans_dist::ReadExReq            32476                       # Transaction distribution
system.tol2bus.trans_dist::ReadExResp           32476                       # Transaction distribution
system.tol2bus.trans_dist::ReadCleanReq         79776                       # Transaction distribution
system.tol2bus.trans_dist::ReadSharedReq        38623                       # Transaction distribution
system.voltage_domain.voltage                       1                       # Voltage in Volts

---------- End Simulation Statistics   ----------
