Running SPEC test: gcc

/home/victorfu/cpu2017/benchspec/CPU/502.gcc_r
/home/victorfu/finalproject/gem5/build/X86/gem6.opt --outdir="/home/victorfu/output/bench_spec/fastforward-p3/gcc" /home/victorfu/finalproject/gem5/configs/example/se.py --cmd=cpugcc_r_base.victor_jun10-m64 --standard-switch=1 --warmup-insts=24000000 --caches  --l2cache --l1i_size=16kB  --l1d_size=64kB --l2_size=256kB --cpu-type=DerivO3CPU  --mem-type=DDR3_1600_8x8  --cpu-clock=1GHz --maxinsts=100000000  --l2-hwp-type=TaggedPrefetcher --mlu_pf_type=perceptron

gem5 Simulator System.  http://gem5.org
gem5 is copyrighted software; use the --copyright option for details.

gem5 compiled Jun 14 2019 14:23:51
gem5 started Jun 14 2019 19:50:59
gem5 executing on tetracosa.cs.ucla.edu, pid 444326
command line: /home/victorfu/finalproject/gem5/build/X86/gem6.opt --outdir=/home/victorfu/output/bench_spec/fastforward-p3/gcc /home/victorfu/finalproject/gem5/configs/example/se.py --cmd=cpugcc_r_base.victor_jun10-m64 --standard-switch=1 --warmup-insts=24000000 --caches --l2cache --l1i_size=16kB --l1d_size=64kB --l2_size=256kB --cpu-type=DerivO3CPU --mem-type=DDR3_1600_8x8 --cpu-clock=1GHz --maxinsts=100000000 --l2-hwp-type=TaggedPrefetcher --mlu_pf_type=perceptron

info: Standard input is not a terminal, disabling listeners.
Warning: l2-hwp-type is set ( TaggedPrefetcher ), but the current l2 has a default Hardware Prefetcher of type <class 'm5.params.NullSimObject'> , using the specified by the flag option.
MLU-Prefetch Perceptron Enabled.
Global frequency set at 1000000000000 ticks per second
warn: DRAM device capacity (8192 Mbytes) does not match the address range assigned (512 Mbytes)
warn: Sockets disabled, not accepting gdb connections
Switch at instruction count:1
info: Entering event queue @ 0.  Starting simulation...
accept
accept
accept
accept
Switched CPUS @ tick 120000
switching cpus
info: Entering event queue @ 120000.  Starting simulation...
accept
accept
accept
accept
warn: ClockedObject: Already in the requested power state, request ignored
Switch at instruction count:24000000
info: Entering event queue @ 8066000.  Starting simulation...
accept
accept
accept
accept
accept
accept
accept
accept
accept
accept
accept
accept
accept
accept
accept
accept
accept
accept
accept
accept
accept
accept
accept
accept
accept
accept
accept
accept
accept
accept
accept
accept
accept
accept
accept
accept
accept
accept
accept
accept
accept
accept
accept
accept
accept
accept
accept
accept
accept
accept
accept
accept
accept
accept
accept
accept
accept
accept
accept
accept
accept
accept
accept
accept
accept
accept
accept
accept
accept
accept
accept
accept
accept
accept
accept
accept
accept
accept
accept
accept
accept
accept
accept
accept
accept
accept
accept
accept
accept
accept
accept
accept
accept
accept
accept
accept
accept
accept
info: Increasing stack size by one page.
accept
accept
accept
accept
accept
accept
accept
accept
accept
accept
accept
accept
accept
accept
accept
accept
accept
accept
accept
accept
accept
accept
accept
accept
accept
accept
accept
accept
accept
accept
accept
accept
accept
accept
accept
accept
accept
accept
accept
accept
accept
accept
accept
accept
accept
accept
accept
accept
accept
accept
accept
accept
accept
accept
accept
accept
accept
accept
accept
accept
accept
accept
accept
accept
accept
accept
accept
accept
accept
accept
accept
accept
accept
accept
accept
accept
accept
accept
accept
accept
accept
accept
accept
accept
accept
accept
accept
accept
accept
accept
accept
accept
accept
accept
accept
accept
accept
accept
accept
accept
accept
accept
accept
accept
accept
accept
accept
accept
accept
accept
accept
accept
accept
accept
accept
accept
accept
accept
accept
accept
accept
accept
accept
accept
accept
accept
accept
accept
accept
accept
accept
accept
accept
accept
accept
accept
accept
accept
accept
accept
accept
accept
accept
accept
accept
accept
accept
accept
accept
accept
accept
accept
accept
accept
accept
accept
accept
accept
accept
accept
weight of 0 is -0.535870
weight of 1 is -0.000279
weight of 2 is -0.355556
weight of 3 is -1.000000
not used!
deny
deny
deny
deny
deny
deny
deny
deny
deny
deny
weight of 0 is -0.000494
weight of 1 is 0.007376
weight of 2 is 0.355556
weight of 3 is 0.000000
used!
weight of 0 is 0.534882
weight of 1 is 0.015032
weight of 2 is 1.066667
weight of 3 is 1.000000
used!
weight of 0 is -0.000997
weight of 1 is -0.025955
weight of 2 is 0.000000
weight of 3 is 0.000000
not used!
accept
accept
weight of 0 is 0.534379
weight of 1 is -0.025945
weight of 2 is 0.000000
weight of 3 is 1.000000
used!
weight of 0 is 1.069755
weight of 1 is -0.025936
weight of 2 is 0.000000
weight of 3 is 2.000000
used!
accept
accept
weight of 0 is 0.533875
weight of 1 is -0.026894
weight of 2 is 0.000000
weight of 3 is 1.000000
not used!
accept
accept
weight of 0 is -0.001995
weight of 1 is -0.027796
weight of 2 is 0.000000
weight of 3 is 0.000000
not used!
accept
accept
accept
accept
accept
accept
weight of 0 is -0.537371
weight of 1 is -0.029111
weight of 2 is 0.000000
weight of 3 is -1.000000
not used!
weight of 0 is -1.072731
weight of 1 is -0.030431
weight of 2 is -1.066667
weight of 3 is -2.000000
not used!
weight of 0 is -1.608597
weight of 1 is -0.071645
weight of 2 is -1.777778
weight of 3 is -3.000000
not used!
deny
deny
deny
deny
weight of 0 is -1.073221
weight of 1 is -0.052107
weight of 2 is -0.711111
weight of 3 is -2.000000
used!
weight of 0 is -0.537845
weight of 1 is -0.032568
weight of 2 is 0.355556
weight of 3 is -1.000000
used!
weight of 0 is -1.073202
weight of 1 is -0.032830
weight of 2 is 0.266667
weight of 3 is -2.000000
not used!
weight of 0 is -1.608967
weight of 1 is -0.066007
weight of 2 is 0.266667
weight of 3 is -3.000000
not used!
deny
deny
weight of 0 is -1.073590
weight of 1 is -0.066002
weight of 2 is 0.266667
weight of 3 is -2.000000
used!
weight of 0 is -0.538214
weight of 1 is -0.065997
weight of 2 is 0.266667
weight of 3 is -1.000000
used!
weight of 0 is -1.073590
weight of 1 is -0.097525
weight of 2 is -0.977778
weight of 3 is -2.000000
not used!
deny
deny
deny
deny
deny
deny
weight of 0 is -1.608946
weight of 1 is -0.099287
weight of 2 is -1.066667
weight of 3 is -3.000000
not used!
deny
deny
weight of 0 is -1.073570
weight of 1 is -0.091260
weight of 2 is -1.066667
weight of 3 is -2.000000
used!
weight of 0 is -0.538194
weight of 1 is -0.083234
weight of 2 is -1.066667
weight of 3 is -1.000000
used!
weight of 0 is -1.073550
weight of 1 is -0.083262
weight of 2 is -1.866667
weight of 3 is -2.000000
not used!
deny
deny
weight of 0 is -1.608907
weight of 1 is -0.083381
weight of 2 is -3.200000
weight of 3 is -3.000000
not used!
deny
deny
weight of 0 is -1.073531
weight of 1 is -0.083363
weight of 2 is -3.200000
weight of 3 is -2.000000
used!
weight of 0 is -0.538154
weight of 1 is -0.083344
weight of 2 is -3.200000
weight of 3 is -1.000000
used!
deny
deny
weight of 0 is -1.073514
weight of 1 is -0.083683
weight of 2 is -3.200000
weight of 3 is -2.000000
not used!
deny
deny
deny
deny
weight of 0 is -0.538138
weight of 1 is -0.045165
weight of 2 is -3.200000
weight of 3 is -1.000000
used!
weight of 0 is -0.002762
weight of 1 is -0.006646
weight of 2 is -3.200000
weight of 3 is 0.000000
used!
accept
accept
weight of 0 is 0.532614
weight of 1 is -0.006512
weight of 2 is -3.200000
weight of 3 is 1.000000
used!
weight of 0 is 1.067991
weight of 1 is -0.006378
weight of 2 is -3.200000
weight of 3 is 2.000000
used!
accept
accept
weight of 0 is 0.532081
weight of 1 is -0.051132
weight of 2 is -3.377778
weight of 3 is 1.000000
not used!
weight of 0 is -0.003296
weight of 1 is -0.083462
weight of 2 is -3.733333
weight of 3 is 0.000000
not used!
weight of 0 is -0.538512
weight of 1 is -0.096454
weight of 2 is -4.800000
weight of 3 is -1.000000
not used!
deny
deny
deny
deny
weight of 0 is -1.074392
weight of 1 is -0.139301
weight of 2 is -5.333333
weight of 3 is -2.000000
not used!
deny
deny
weight of 0 is -0.539016
weight of 1 is -0.139179
weight of 2 is -4.622222
weight of 3 is -1.000000
used!
weight of 0 is -0.003640
weight of 1 is -0.139056
weight of 2 is -3.911111
weight of 3 is 0.000000
used!
weight of 0 is -0.539016
weight of 1 is -0.180039
weight of 2 is -3.911111
weight of 3 is -1.000000
not used!
deny
deny
deny
deny
weight of 0 is -1.074892
weight of 1 is -0.220762
weight of 2 is -4.800000
weight of 3 is -2.000000
not used!
deny
deny
weight of 0 is -0.539516
weight of 1 is -0.211244
weight of 2 is -3.733333
weight of 3 is -1.000000
used!
weight of 0 is -0.004139
weight of 1 is -0.201726
weight of 2 is -2.666667
weight of 3 is 0.000000
used!
weight of 0 is -0.539723
weight of 1 is -0.218581
weight of 2 is -3.911111
weight of 3 is -1.000000
not used!
deny
deny
weight of 0 is -1.075305
weight of 1 is -0.218599
weight of 2 is -5.155556
weight of 3 is -2.000000
not used!
deny
deny
deny
deny
deny
deny
deny
deny
deny
deny
weight of 0 is -0.539929
weight of 1 is -0.203187
weight of 2 is -5.155556
weight of 3 is -1.000000
used!
weight of 0 is -0.004553
weight of 1 is -0.187774
weight of 2 is -5.155556
weight of 3 is 0.000000
used!
deny
deny
weight of 0 is -0.539998
weight of 1 is -0.193413
weight of 2 is -5.333333
weight of 3 is -1.000000
not used!
deny
deny
weight of 0 is -0.004622
weight of 1 is -0.189446
weight of 2 is -5.333333
weight of 3 is 0.000000
used!
weight of 0 is 0.530754
weight of 1 is -0.185480
weight of 2 is -5.333333
weight of 3 is 1.000000
used!
weight of 0 is -0.004691
weight of 1 is -0.185500
weight of 2 is -5.422222
weight of 3 is 0.000000
not used!
deny
deny
weight of 0 is -0.540067
weight of 1 is -0.190999
weight of 2 is -5.955556
weight of 3 is -1.000000
not used!
deny
deny
weight of 0 is -0.004691
weight of 1 is -0.173287
weight of 2 is -4.888889
weight of 3 is 0.000000
used!
weight of 0 is 0.530686
weight of 1 is -0.155575
weight of 2 is -3.822222
weight of 3 is 1.000000
used!
weight of 0 is -0.004759
weight of 1 is -0.161062
weight of 2 is -4.444444
weight of 3 is 0.000000
not used!
accept
accept
weight of 0 is 0.530617
weight of 1 is -0.157178
weight of 2 is -4.444444
weight of 3 is 1.000000
used!
weight of 0 is 1.065993
weight of 1 is -0.153294
weight of 2 is -4.444444
weight of 3 is 2.000000
used!
deny
deny
accept
accept
weight of 0 is 0.530409
weight of 1 is -0.170134
weight of 2 is -4.444444
weight of 3 is 1.000000
not used!
deny
deny
warn: ignoring syscall access(...)
deny
deny
weight of 0 is -0.005136
weight of 1 is -0.183879
weight of 2 is -5.333333
weight of 3 is 0.000000
not used!
accept
accept
deny
deny
weight of 0 is -0.540722
weight of 1 is -0.201011
weight of 2 is -6.577778
weight of 3 is -1.000000
not used!
deny
deny
deny
deny
weight of 0 is -1.076264
weight of 1 is -0.204670
weight of 2 is -6.755556
weight of 3 is -2.000000
not used!
deny
deny
weight of 0 is -1.611640
weight of 1 is -0.218018
weight of 2 is -7.644444
weight of 3 is -3.000000
not used!
deny
deny
deny
deny
weight of 0 is -1.076264
weight of 1 is -0.213840
weight of 2 is -7.288889
weight of 3 is -2.000000
used!
weight of 0 is -0.540887
weight of 1 is -0.209663
weight of 2 is -6.933333
weight of 3 is -1.000000
used!
deny
deny
weight of 0 is -0.005511
weight of 1 is -0.209648
weight of 2 is -6.933333
weight of 3 is 0.000000
used!
weight of 0 is 0.529865
weight of 1 is -0.209634
weight of 2 is -6.933333
weight of 3 is 1.000000
used!
accept
accept
deny
deny
weight of 0 is 1.065241
weight of 1 is -0.209616
weight of 2 is -6.933333
weight of 3 is 2.000000
used!
weight of 0 is 1.600617
weight of 1 is -0.209597
weight of 2 is -6.933333
weight of 3 is 3.000000
used!
weight of 0 is 1.064682
weight of 1 is -0.255163
weight of 2 is -8.177778
weight of 3 is 2.000000
not used!
accept
accept
weight of 0 is 1.600058
weight of 1 is -0.255144
weight of 2 is -8.177778
weight of 3 is 3.000000
used!
weight of 0 is 2.135434
weight of 1 is -0.255125
weight of 2 is -8.177778
weight of 3 is 4.000000
used!
weight of 0 is 1.599499
weight of 1 is -0.255165
weight of 2 is -9.244444
weight of 3 is 3.000000
not used!
weight of 0 is 1.063621
weight of 1 is -0.255194
weight of 2 is -9.244444
weight of 3 is 2.000000
not used!
deny
deny
weight of 0 is 0.528244
weight of 1 is -0.296037
weight of 2 is -9.244444
weight of 3 is 1.000000
not used!
accept
accept
weight of 0 is -0.007690
weight of 1 is -0.341491
weight of 2 is -9.777778
weight of 3 is 0.000000
not used!
weight of 0 is -0.543067
weight of 1 is -0.361576
weight of 2 is -10.133333
weight of 3 is -1.000000
not used!
deny
deny
deny
deny
deny
deny
weight of 0 is -1.078443
weight of 1 is -0.362986
weight of 2 is -10.488889
weight of 3 is -2.000000
not used!
weight of 0 is -1.613819
weight of 1 is -0.389720
weight of 2 is -10.844444
weight of 3 is -3.000000
not used!
deny
deny
weight of 0 is -2.149195
weight of 1 is -0.389804
weight of 2 is -11.911111
weight of 3 is -4.000000
not used!
deny
deny
deny
deny
deny
deny
weight of 0 is -2.684995
weight of 1 is -0.424338
weight of 2 is -13.155556
weight of 3 is -5.000000
not used!
deny
deny
weight of 0 is -2.149619
weight of 1 is -0.401929
weight of 2 is -12.088889
weight of 3 is -4.000000
used!
weight of 0 is -1.614243
weight of 1 is -0.379521
weight of 2 is -11.022222
weight of 3 is -3.000000
used!
deny
deny
weight of 0 is -1.078867
weight of 1 is -0.379516
weight of 2 is -11.022222
weight of 3 is -2.000000
used!
weight of 0 is -0.543491
weight of 1 is -0.379511
weight of 2 is -11.022222
weight of 3 is -1.000000
used!
weight of 0 is -1.079291
weight of 1 is -0.379530
weight of 2 is -12.266667
weight of 3 is -2.000000
not used!
deny
deny
weight of 0 is -0.543914
weight of 1 is -0.379511
weight of 2 is -12.266667
weight of 3 is -1.000000
used!
weight of 0 is -0.008538
weight of 1 is -0.379492
weight of 2 is -12.266667
weight of 3 is 0.000000
used!
weight of 0 is -0.543914
weight of 1 is -0.396220
weight of 2 is -12.977778
weight of 3 is -1.000000
not used!
deny
deny
weight of 0 is -1.079336
weight of 1 is -0.399910
weight of 2 is -14.266667
weight of 3 is -2.000000
not used!
deny
deny
weight of 0 is -1.614712
weight of 1 is -0.403534
weight of 2 is -14.266667
weight of 3 is -3.000000
not used!
deny
deny
deny
deny
deny
deny
weight of 0 is -2.150088
weight of 1 is -0.405380
weight of 2 is -15.333333
weight of 3 is -4.000000
not used!
deny
deny
deny
deny
weight of 0 is -1.614712
weight of 1 is -0.402741
weight of 2 is -14.622222
weight of 3 is -3.000000
used!
weight of 0 is -1.079336
weight of 1 is -0.400101
weight of 2 is -13.911111
weight of 3 is -2.000000
used!
weight of 0 is -1.614712
weight of 1 is -0.400162
weight of 2 is -14.622222
weight of 3 is -3.000000
not used!
deny
deny
deny
deny
deny
deny
deny
deny
deny
deny
deny
deny
deny
deny
deny
deny
deny
deny
deny
deny
deny
deny
weight of 0 is -1.079336
weight of 1 is -0.372768
weight of 2 is -13.555556
weight of 3 is -2.000000
used!
weight of 0 is -0.543959
weight of 1 is -0.345374
weight of 2 is -12.488889
weight of 3 is -1.000000
used!
weight of 0 is -1.079335
weight of 1 is -0.375701
weight of 2 is -12.666667
weight of 3 is -2.000000
not used!
deny
deny
deny
deny
deny
deny
weight of 0 is -0.543959
weight of 1 is -0.337997
weight of 2 is -12.666667
weight of 3 is -1.000000
used!
weight of 0 is -0.008583
weight of 1 is -0.300294
weight of 2 is -12.666667
weight of 3 is 0.000000
used!
accept
accept
weight of 0 is 0.526793
weight of 1 is -0.262883
weight of 2 is -12.666667
weight of 3 is 1.000000
used!
weight of 0 is 1.062169
weight of 1 is -0.225473
weight of 2 is -12.666667
weight of 3 is 2.000000
used!
weight of 0 is 0.526420
weight of 1 is -0.225530
weight of 2 is -12.844444
weight of 3 is 1.000000
not used!
weight of 0 is -0.009328
weight of 1 is -0.225661
weight of 2 is -13.022222
weight of 3 is 0.000000
not used!
deny
deny
weight of 0 is -0.544705
weight of 1 is -0.255930
weight of 2 is -13.022222
weight of 3 is -1.000000
not used!
weight of 0 is -1.080434
weight of 1 is -0.284637
weight of 2 is -13.022222
weight of 3 is -2.000000
not used!
deny
deny
deny
deny
weight of 0 is -1.615810
weight of 1 is -0.313269
weight of 2 is -13.022222
weight of 3 is -3.000000
not used!
deny
deny
weight of 0 is -2.151688
weight of 1 is -0.343399
weight of 2 is -14.088889
weight of 3 is -4.000000
not used!
weight of 0 is -2.687064
weight of 1 is -0.373745
weight of 2 is -14.800000
weight of 3 is -5.000000
not used!
deny
deny
weight of 0 is -3.222950
weight of 1 is -0.403284
weight of 2 is -15.955556
weight of 3 is -6.000000
not used!
deny
deny
weight of 0 is -2.687574
weight of 1 is -0.403040
weight of 2 is -15.955556
weight of 3 is -5.000000
used!
weight of 0 is -2.152197
weight of 1 is -0.402796
weight of 2 is -15.955556
weight of 3 is -4.000000
used!
deny
deny
weight of 0 is -2.687574
weight of 1 is -0.442847
weight of 2 is -15.955556
weight of 3 is -5.000000
not used!
deny
deny
deny
deny
deny
deny
deny
deny
weight of 0 is -2.152198
weight of 1 is -0.421805
weight of 2 is -15.955556
weight of 3 is -4.000000
used!
weight of 0 is -1.616821
weight of 1 is -0.400763
weight of 2 is -15.955556
weight of 3 is -3.000000
used!
deny
deny
weight of 0 is -1.081445
weight of 1 is -0.400589
weight of 2 is -15.600000
weight of 3 is -2.000000
used!
weight of 0 is -0.546069
weight of 1 is -0.400416
weight of 2 is -15.244444
weight of 3 is -1.000000
used!
deny
deny
weight of 0 is -1.081445
weight of 1 is -0.400444
weight of 2 is -15.600000
weight of 3 is -2.000000
not used!
deny
deny
deny
deny
deny
deny
deny
deny
deny
deny
weight of 0 is -1.573567
weight of 1 is -0.400498
weight of 2 is -15.777778
weight of 3 is -3.000000
not used!
deny
deny
deny
deny
deny
deny
deny
deny
deny
deny
deny
deny
deny
deny
weight of 0 is -2.108943
weight of 1 is -0.428742
weight of 2 is -16.488889
weight of 3 is -4.000000
not used!
deny
deny
weight of 0 is -2.643945
weight of 1 is -0.459202
weight of 2 is -16.755556
weight of 3 is -5.000000
not used!
deny
deny
deny
deny
deny
deny
deny
deny
deny
deny
deny
deny
weight of 0 is -2.108569
weight of 1 is -0.459132
weight of 2 is -15.688889
weight of 3 is -4.000000
used!
weight of 0 is -1.573193
weight of 1 is -0.459061
weight of 2 is -14.622222
weight of 3 is -3.000000
used!
weight of 0 is -2.108569
weight of 1 is -0.499022
weight of 2 is -15.155556
weight of 3 is -4.000000
not used!
weight of 0 is -2.643945
weight of 1 is -0.499334
weight of 2 is -15.155556
weight of 3 is -5.000000
not used!
deny
deny
weight of 0 is -2.108569
weight of 1 is -0.499226
weight of 2 is -14.088889
weight of 3 is -4.000000
used!
weight of 0 is -1.573193
weight of 1 is -0.499118
weight of 2 is -13.022222
weight of 3 is -3.000000
used!
deny
deny
deny
deny
weight of 0 is -1.037817
weight of 1 is -0.498198
weight of 2 is -12.311111
weight of 3 is -2.000000
used!
weight of 0 is -0.502440
weight of 1 is -0.497277
weight of 2 is -11.600000
weight of 3 is -1.000000
used!
deny
deny
weight of 0 is -1.033438
weight of 1 is -0.497333
weight of 2 is -11.777778
weight of 3 is -2.000000
not used!
deny
deny
weight of 0 is -1.569313
weight of 1 is -0.894388
weight of 2 is -12.311111
weight of 3 is -3.000000
not used!
deny
deny
deny
deny
deny
deny
weight of 0 is -1.033937
weight of 1 is -0.894384
weight of 2 is -12.311111
weight of 3 is -2.000000
used!
weight of 0 is -0.498561
weight of 1 is -0.894379
weight of 2 is -12.311111
weight of 3 is -1.000000
used!
deny
deny
weight of 0 is 0.036815
weight of 1 is -0.877316
weight of 2 is -11.955556
weight of 3 is 0.000000
used!
weight of 0 is 0.572192
weight of 1 is -0.860252
weight of 2 is -11.600000
weight of 3 is 1.000000
used!
weight of 0 is 0.080198
weight of 1 is -4.381157
weight of 2 is -12.133333
weight of 3 is 0.000000
not used!
weight of 0 is -0.455179
weight of 1 is -7.902112
weight of 2 is -12.133333
weight of 3 is -1.000000
not used!
deny
deny
deny
deny
weight of 0 is 0.080197
weight of 1 is -7.902098
weight of 2 is -12.133333
weight of 3 is 0.000000
used!
weight of 0 is 0.615574
weight of 1 is -7.902084
weight of 2 is -12.133333
weight of 3 is 1.000000
used!
deny
deny
weight of 0 is 0.080050
weight of 1 is -7.902215
weight of 2 is -13.022222
weight of 3 is 0.000000
not used!
deny
deny
weight of 0 is -0.455702
weight of 1 is -7.902271
weight of 2 is -14.000000
weight of 3 is -1.000000
not used!
deny
deny
weight of 0 is -0.991455
weight of 1 is -7.902295
weight of 2 is -14.533333
weight of 3 is -2.000000
not used!
deny
deny
weight of 0 is -0.456079
weight of 1 is -7.867529
weight of 2 is -14.533333
weight of 3 is -1.000000
used!
weight of 0 is 0.079297
weight of 1 is -7.832762
weight of 2 is -14.533333
weight of 3 is 0.000000
used!
deny
deny
deny
deny
weight of 0 is -0.456604
weight of 1 is -7.834406
weight of 2 is -15.777778
weight of 3 is -1.000000
not used!
deny
deny
weight of 0 is 0.078772
weight of 1 is -7.834275
weight of 2 is -15.777778
weight of 3 is 0.000000
used!
weight of 0 is 0.614149
weight of 1 is -7.834143
weight of 2 is -15.777778
weight of 3 is 1.000000
used!
accept
accept
deny
deny
deny
deny
deny
deny
accept
accept
deny
deny
deny
deny
deny
deny
deny
deny
deny
deny
weight of 0 is 1.149855
weight of 1 is -7.827615
weight of 2 is -15.333333
weight of 3 is 2.000000
used!
weight of 0 is 1.685561
weight of 1 is -7.821086
weight of 2 is -14.888889
weight of 3 is 3.000000
used!
accept
accept
accept
accept
weight of 0 is 2.220937
weight of 1 is -7.820952
weight of 2 is -14.177778
weight of 3 is 4.000000
used!
weight of 0 is 2.756314
weight of 1 is -7.820818
weight of 2 is -13.466667
weight of 3 is 5.000000
used!
deny
deny
weight of 0 is 3.291690
weight of 1 is -7.816666
weight of 2 is -13.466667
weight of 3 is 6.000000
used!
weight of 0 is 3.827066
weight of 1 is -7.812514
weight of 2 is -13.466667
weight of 3 is 7.000000
used!
weight of 0 is 3.291189
weight of 1 is -7.853257
weight of 2 is -14.355556
weight of 3 is 6.000000
not used!
accept
accept
weight of 0 is 3.826565
weight of 1 is -7.845460
weight of 2 is -14.355556
weight of 3 is 7.000000
used!
weight of 0 is 4.361942
weight of 1 is -7.837664
weight of 2 is -14.355556
weight of 3 is 8.000000
used!
weight of 0 is 3.826065
weight of 1 is -7.837725
weight of 2 is -15.600000
weight of 3 is 7.000000
not used!
accept
accept
weight of 0 is 3.290688
weight of 1 is -7.878465
weight of 2 is -16.133333
weight of 3 is 6.000000
not used!
accept
accept
weight of 0 is 2.754814
weight of 1 is -7.919062
weight of 2 is -16.488889
weight of 3 is 5.000000
not used!
weight of 0 is 2.219437
weight of 1 is -7.959605
weight of 2 is -16.844444
weight of 3 is 4.000000
not used!
weight of 0 is 1.684061
weight of 1 is -7.985296
weight of 2 is -17.911111
weight of 3 is 3.000000
not used!
accept
accept
weight of 0 is 1.148456
weight of 1 is -8.003959
weight of 2 is -18.088889
weight of 3 is 2.000000
not used!
accept
accept
weight of 0 is 0.612851
weight of 1 is -8.022552
weight of 2 is -19.333333
weight of 3 is 1.000000
not used!
deny
deny
weight of 0 is 0.077475
weight of 1 is -8.039566
weight of 2 is -19.688889
weight of 3 is 0.000000
not used!
accept
accept
deny
deny
deny
deny
deny
deny
accept
accept
accept
accept
weight of 0 is -0.457901
weight of 1 is -8.039573
weight of 2 is -19.688889
weight of 3 is -1.000000
not used!
deny
deny
deny
deny
weight of 0 is 0.077983
weight of 1 is -7.998257
weight of 2 is -19.511111
weight of 3 is 0.000000
used!
weight of 0 is 0.613866
weight of 1 is -7.956942
weight of 2 is -19.333333
weight of 3 is 1.000000
used!
weight of 0 is 0.078490
weight of 1 is -7.956993
weight of 2 is -19.511111
weight of 3 is 0.000000
not used!
accept
accept
weight of 0 is 0.614373
weight of 1 is -7.915716
weight of 2 is -19.377778
weight of 3 is 1.000000
used!
weight of 0 is 1.150256
weight of 1 is -7.874438
weight of 2 is -19.244444
weight of 3 is 2.000000
used!
accept
accept
deny
deny
deny
deny
weight of 0 is 0.614843
weight of 1 is -7.877490
weight of 2 is -20.555556
weight of 3 is 1.000000
not used!
accept
accept
accept
accept
accept
accept
accept
accept
accept
accept
deny
deny
deny
deny
accept
accept
weight of 0 is 0.079467
weight of 1 is -7.877715
weight of 2 is -20.555556
weight of 3 is 0.000000
not used!
deny
deny
accept
accept
deny
deny
deny
deny
deny
deny
deny
deny
deny
deny
weight of 0 is -0.455910
weight of 1 is -7.877718
weight of 2 is -20.555556
weight of 3 is -1.000000
not used!
deny
deny
weight of 0 is 0.079902
weight of 1 is -7.877609
weight of 2 is -19.577778
weight of 3 is 0.000000
used!
weight of 0 is 0.615714
weight of 1 is -7.877499
weight of 2 is -18.600000
weight of 3 is 1.000000
used!
deny
deny
weight of 0 is 1.151526
weight of 1 is -7.875907
weight of 2 is -17.888889
weight of 3 is 2.000000
used!
weight of 0 is 1.687338
weight of 1 is -7.874315
weight of 2 is -17.177778
weight of 3 is 3.000000
used!
weight of 0 is 1.151962
weight of 1 is -7.874322
weight of 2 is -17.177778
weight of 3 is 2.000000
not used!
weight of 0 is 0.616586
weight of 1 is -7.875224
weight of 2 is -17.177778
weight of 3 is 1.000000
not used!
accept
accept
deny
deny
accept
accept
accept
accept
weight of 0 is 0.081210
weight of 1 is -7.875228
weight of 2 is -17.177778
weight of 3 is 0.000000
not used!
accept
accept
accept
accept
deny
deny
accept
accept
deny
deny
deny
deny
deny
deny
weight of 0 is 0.617020
weight of 1 is -7.875174
weight of 2 is -16.377778
weight of 3 is 1.000000
used!
weight of 0 is 1.152831
weight of 1 is -7.875120
weight of 2 is -15.577778
weight of 3 is 2.000000
used!
deny
deny
accept
accept
weight of 0 is 1.688208
weight of 1 is -7.835437
weight of 2 is -14.511111
weight of 3 is 3.000000
used!
weight of 0 is 2.223584
weight of 1 is -7.795754
weight of 2 is -13.444444
weight of 3 is 4.000000
used!
deny
deny
deny
deny
deny
deny
accept
accept
accept
accept
warn: ignoring syscall mprotect(...)
accept
accept
deny
deny
accept
accept
deny
deny
accept
accept
accept
accept
deny
deny
accept
accept
deny
deny
accept
accept
deny
deny
deny
deny
deny
deny
accept
accept
accept
accept
deny
deny
deny
deny
accept
accept
accept
accept
accept
accept
deny
deny
accept
accept
accept
accept
deny
deny
deny
deny
weight of 0 is 1.687882
weight of 1 is -7.822282
weight of 2 is -13.533333
weight of 3 is 3.000000
not used!
deny
deny
weight of 0 is 1.152175
weight of 1 is -7.822304
weight of 2 is -13.622222
weight of 3 is 2.000000
not used!
weight of 0 is 0.616799
weight of 1 is -7.849283
weight of 2 is -13.622222
weight of 3 is 1.000000
not used!
weight of 0 is 0.081423
weight of 1 is -7.849335
weight of 2 is -13.622222
weight of 3 is 0.000000
not used!
weight of 0 is -0.453953
weight of 1 is -7.887661
weight of 2 is -13.622222
weight of 3 is -1.000000
not used!
deny
deny
deny
deny
deny
deny
deny
deny
deny
deny
deny
deny
deny
deny
deny
deny
deny
deny
deny
deny
deny
deny
weight of 0 is 0.081771
weight of 1 is -7.879554
weight of 2 is -13.177778
weight of 3 is 0.000000
used!
weight of 0 is 0.617495
weight of 1 is -7.871448
weight of 2 is -12.733333
weight of 3 is 1.000000
used!
deny
deny
deny
deny
weight of 0 is 0.082089
weight of 1 is -7.899055
weight of 2 is -12.733333
weight of 3 is 0.000000
not used!
deny
deny
weight of 0 is 0.617918
weight of 1 is -7.890687
weight of 2 is -11.711111
weight of 3 is 1.000000
used!
weight of 0 is 1.153747
weight of 1 is -7.882319
weight of 2 is -10.688889
weight of 3 is 2.000000
used!
deny
deny
weight of 0 is 0.618370
weight of 1 is -7.898183
weight of 2 is -10.688889
weight of 3 is 1.000000
not used!
weight of 0 is 0.082803
weight of 1 is -7.913739
weight of 2 is -10.688889
weight of 3 is 0.000000
not used!
weight of 0 is -0.452768
weight of 1 is -7.914058
weight of 2 is -10.688889
weight of 3 is -1.000000
not used!
weight of 0 is -0.988144
weight of 1 is -7.929727
weight of 2 is -10.688889
weight of 3 is -2.000000
not used!
weight of 0 is -1.523520
weight of 1 is -7.955353
weight of 2 is -10.688889
weight of 3 is -3.000000
not used!
deny
deny
deny
deny
deny
deny
deny
deny
deny
deny
weight of 0 is -0.987704
weight of 1 is -7.955243
weight of 2 is -9.533333
weight of 3 is -2.000000
used!
weight of 0 is -0.451887
weight of 1 is -7.955134
weight of 2 is -8.377778
weight of 3 is -1.000000
used!
deny
deny
weight of 0 is 0.083929
weight of 1 is -7.940183
weight of 2 is -7.488889
weight of 3 is 0.000000
used!
weight of 0 is 0.619745
weight of 1 is -7.925231
weight of 2 is -6.600000
weight of 3 is 1.000000
used!
accept
accept
deny
deny
accept
accept
accept
accept
weight of 0 is 1.155560
weight of 1 is -7.925177
weight of 2 is -5.622222
weight of 3 is 2.000000
used!
weight of 0 is 1.691376
weight of 1 is -7.925123
weight of 2 is -4.644444
weight of 3 is 3.000000
used!
weight of 0 is 1.155792
weight of 1 is -7.925221
weight of 2 is -4.644444
weight of 3 is 2.000000
not used!
deny
deny
weight of 0 is 1.691608
weight of 1 is -7.925197
weight of 2 is -4.111111
weight of 3 is 3.000000
used!
weight of 0 is 2.227424
weight of 1 is -7.925172
weight of 2 is -3.577778
weight of 3 is 4.000000
used!
accept
accept
accept
accept
weight of 0 is 1.692048
weight of 1 is -7.931426
weight of 2 is -3.577778
weight of 3 is 3.000000
not used!
deny
deny
warn: ignoring syscall mprotect(...)
weight of 0 is 1.156672
weight of 1 is -7.931482
weight of 2 is -3.577778
weight of 3 is 2.000000
not used!
weight of 0 is 0.620807
weight of 1 is -7.931489
weight of 2 is -3.577778
weight of 3 is 1.000000
not used!
deny
deny
accept
accept
accept
accept
accept
accept
accept
accept
accept
accept
accept
accept
accept
accept
weight of 0 is 0.085431
weight of 1 is -7.954227
weight of 2 is -3.933333
weight of 3 is 0.000000
not used!
accept
accept
accept
accept
accept
accept
accept
accept
weight of 0 is -0.461769
weight of 1 is -7.954240
weight of 2 is -3.933333
weight of 3 is -1.000000
not used!
deny
deny
deny
deny
deny
deny
deny
deny
deny
deny
deny
deny
weight of 0 is 0.074115
weight of 1 is -7.954214
weight of 2 is -3.044444
weight of 3 is 0.000000
used!
weight of 0 is 0.610000
weight of 1 is -7.954188
weight of 2 is -2.155556
weight of 3 is 1.000000
used!
deny
deny
weight of 0 is 1.171942
weight of 1 is -5.833289
weight of 2 is -2.155556
weight of 3 is 2.000000
used!
weight of 0 is 1.733884
weight of 1 is -3.712391
weight of 2 is -2.155556
weight of 3 is 3.000000
used!
deny
deny
weight of 0 is 2.269768
weight of 1 is -1.591406
weight of 2 is -1.800000
weight of 3 is 4.000000
used!
weight of 0 is 2.805652
weight of 1 is 0.529580
weight of 2 is -1.444444
weight of 3 is 5.000000
used!
accept
accept
weight of 0 is 3.367594
weight of 1 is 0.529598
weight of 2 is -1.444444
weight of 3 is 6.000000
used!
weight of 0 is 3.929537
weight of 1 is 0.529617
weight of 2 is -1.444444
weight of 3 is 7.000000
used!
accept
accept
weight of 0 is 4.465421
weight of 1 is 2.650659
weight of 2 is -1.088889
weight of 3 is 8.000000
used!
weight of 0 is 5.001306
weight of 1 is 4.771701
weight of 2 is -0.733333
weight of 3 is 9.000000
used!
accept
accept
accept
accept
accept
accept
weight of 0 is 4.465930
weight of 1 is 4.771532
weight of 2 is -0.733333
weight of 3 is 8.000000
not used!
weight of 0 is 3.929886
weight of 1 is 4.711990
weight of 2 is -1.088889
weight of 3 is 7.000000
not used!
accept
accept
weight of 0 is 3.394510
weight of 1 is 4.711983
weight of 2 is -1.444444
weight of 3 is 6.000000
not used!
weight of 0 is 2.859134
weight of 1 is 4.711605
weight of 2 is -1.622222
weight of 3 is 5.000000
not used!
accept
accept
accept
accept
accept
accept
accept
accept
accept
accept
accept
accept
accept
accept
accept
accept
accept
accept
accept
accept
accept
accept
accept
accept
accept
accept
accept
accept
accept
accept
accept
accept
accept
accept
accept
accept
accept
accept
accept
accept
accept
accept
accept
accept
accept
accept
accept
accept
accept
accept
accept
accept
accept
accept
accept
accept
accept
accept
accept
accept
accept
accept
accept
accept
accept
accept
accept
accept
accept
accept
accept
accept
accept
accept
accept
accept
accept
accept
accept
accept
accept
accept
accept
accept
accept
accept
accept
accept
weight of 0 is 2.323546
weight of 1 is 4.711509
weight of 2 is -1.622222
weight of 3 is 4.000000
not used!
weight of 0 is 1.788170
weight of 1 is 4.671837
weight of 2 is -1.622222
weight of 3 is 3.000000
not used!
weight of 0 is 1.252279
weight of 1 is 4.629995
weight of 2 is -1.800000
weight of 3 is 2.000000
not used!
weight of 0 is 0.716417
weight of 1 is 4.627811
weight of 2 is -2.688889
weight of 3 is 1.000000
not used!
weight of 0 is 0.181040
weight of 1 is 4.602446
weight of 2 is -3.400000
weight of 3 is 0.000000
not used!
deny
deny
accept
accept
deny
deny
accept
accept
accept
accept
accept
accept
accept
accept
accept
accept
accept
accept
accept
accept
accept
accept
accept
accept
accept
accept
weight of 0 is -0.380635
weight of 1 is 4.602390
weight of 2 is -3.400000
weight of 3 is -1.000000
not used!
deny
deny
deny
deny
deny
deny
weight of 0 is 0.181265
weight of 1 is 4.602446
weight of 2 is -3.400000
weight of 3 is 0.000000
used!
weight of 0 is 0.743165
weight of 1 is 4.602502
weight of 2 is -3.400000
weight of 3 is 1.000000
used!
accept
accept
weight of 0 is 1.305065
weight of 1 is 4.602521
weight of 2 is -3.400000
weight of 3 is 2.000000
used!
weight of 0 is 1.866965
weight of 1 is 4.602540
weight of 2 is -3.400000
weight of 3 is 3.000000
used!
accept
accept
accept
accept
accept
accept
accept
accept
weight of 0 is 1.305022
weight of 1 is 2.481479
weight of 2 is -3.400000
weight of 3 is 2.000000
not used!
weight of 0 is 0.769137
weight of 1 is 0.360464
weight of 2 is -4.288889
weight of 3 is 1.000000
not used!
accept
accept
weight of 0 is 0.221689
weight of 1 is -0.586251
weight of 2 is -5.533333
weight of 3 is 0.000000
not used!
deny
deny
accept
accept
deny
deny
accept
accept
deny
deny
accept
accept
weight of 0 is -0.313687
weight of 1 is -1.565566
weight of 2 is -6.066667
weight of 3 is -1.000000
not used!
deny
deny
deny
deny
deny
deny
deny
deny
deny
deny
deny
deny
weight of 0 is 0.221689
weight of 1 is -1.557647
weight of 2 is -6.066667
weight of 3 is 0.000000
used!
weight of 0 is 0.757066
weight of 1 is -1.549728
weight of 2 is -6.066667
weight of 3 is 1.000000
used!
accept
accept
weight of 0 is 1.292442
weight of 1 is -1.549710
weight of 2 is -6.066667
weight of 3 is 2.000000
used!
weight of 0 is 1.827818
weight of 1 is -1.549691
weight of 2 is -6.066667
weight of 3 is 3.000000
used!
accept
accept
deny
deny
accept
accept
weight of 0 is 1.292217
weight of 1 is -1.580699
weight of 2 is -7.311111
weight of 3 is 2.000000
not used!
deny
deny
accept
accept
accept
accept
weight of 0 is 0.744655
weight of 1 is -2.736689
weight of 2 is -8.066667
weight of 3 is 1.000000
not used!
deny
deny
accept
accept
weight of 0 is 0.209279
weight of 1 is -3.743397
weight of 2 is -8.066667
weight of 3 is 0.000000
not used!
accept
accept
accept
accept
deny
deny
deny
deny
deny
deny
deny
deny
weight of 0 is -0.326097
weight of 1 is -3.743996
weight of 2 is -9.311111
weight of 3 is -1.000000
not used!
deny
deny
weight of 0 is 0.235719
weight of 1 is -2.602462
weight of 2 is -9.311111
weight of 3 is 0.000000
used!
weight of 0 is 0.797535
weight of 1 is -1.460928
weight of 2 is -9.311111
weight of 3 is 1.000000
used!
deny
deny
weight of 0 is 1.345327
weight of 1 is -0.319450
weight of 2 is -9.311111
weight of 3 is 2.000000
used!
weight of 0 is 1.893120
weight of 1 is 0.822027
weight of 2 is -9.311111
weight of 3 is 3.000000
used!
accept
accept
weight of 0 is 2.440913
weight of 1 is 1.963502
weight of 2 is -9.133333
weight of 3 is 4.000000
used!
weight of 0 is 2.988705
weight of 1 is 3.104978
weight of 2 is -8.955556
weight of 3 is 5.000000
used!
weight of 0 is 2.453329
weight of 1 is 3.104719
weight of 2 is -9.133333
weight of 3 is 4.000000
not used!
accept
accept
weight of 0 is 3.015146
weight of 1 is 4.246216
weight of 2 is -9.133333
weight of 3 is 5.000000
used!
weight of 0 is 3.576962
weight of 1 is 5.387712
weight of 2 is -9.133333
weight of 3 is 6.000000
used!
accept
accept
weight of 0 is 3.041586
weight of 1 is 5.386951
weight of 2 is -9.133333
weight of 3 is 5.000000
not used!
accept
accept
accept
accept
weight of 0 is 2.506209
weight of 1 is 5.372823
weight of 2 is -9.133333
weight of 3 is 4.000000
not used!
accept
accept
weight of 0 is 1.970833
weight of 1 is 5.355980
weight of 2 is -9.844444
weight of 3 is 3.000000
not used!
accept
accept
accept
accept
accept
accept
accept
accept
accept
accept
accept
accept
accept
accept
weight of 0 is 1.435457
weight of 1 is 5.302927
weight of 2 is -10.555556
weight of 3 is 2.000000
not used!
weight of 0 is 0.943670
weight of 1 is 1.765819
weight of 2 is -10.600000
weight of 3 is 1.000000
not used!
accept
accept
weight of 0 is 0.408294
weight of 1 is -1.771619
weight of 2 is -10.600000
weight of 3 is 0.000000
not used!
deny
deny
deny
deny
deny
deny
deny
deny
deny
deny
weight of 0 is 0.956094
weight of 1 is -0.630480
weight of 2 is -10.600000
weight of 3 is 1.000000
used!
weight of 0 is 1.503894
weight of 1 is 0.510660
weight of 2 is -10.600000
weight of 3 is 2.000000
used!
accept
accept
weight of 0 is 2.051695
weight of 1 is 0.510681
weight of 2 is -10.422222
weight of 3 is 3.000000
used!
weight of 0 is 2.599495
weight of 1 is 0.510702
weight of 2 is -10.244444
weight of 3 is 4.000000
used!
accept
accept
weight of 0 is 3.161314
weight of 1 is 1.651898
weight of 2 is -10.244444
weight of 3 is 5.000000
used!
weight of 0 is 3.723134
weight of 1 is 2.793094
weight of 2 is -10.244444
weight of 3 is 6.000000
used!
accept
accept
weight of 0 is 3.175573
weight of 1 is 2.791603
weight of 2 is -11.288889
weight of 3 is 5.000000
not used!
accept
accept
accept
accept
accept
accept
accept
accept
accept
accept
weight of 0 is 2.640197
weight of 1 is 0.633378
weight of 2 is -11.288889
weight of 3 is 4.000000
not used!
accept
accept
weight of 0 is 2.105060
weight of 1 is 0.613426
weight of 2 is -11.288889
weight of 3 is 3.000000
not used!
accept
accept
weight of 0 is 1.569169
weight of 1 is 0.541148
weight of 2 is -11.511111
weight of 3 is 2.000000
not used!
weight of 0 is 1.033144
weight of 1 is 0.540851
weight of 2 is -11.511111
weight of 3 is 1.000000
not used!
accept
accept
accept
accept
weight of 0 is 0.471252
weight of 1 is 0.540836
weight of 2 is -12.844444
weight of 3 is 0.000000
not used!
accept
accept
weight of 0 is -0.090642
weight of 1 is 0.540833
weight of 2 is -14.088889
weight of 3 is -1.000000
not used!
deny
deny
deny
deny
deny
deny
deny
deny
weight of 0 is 0.457165
weight of 1 is 0.540889
weight of 2 is -14.088889
weight of 3 is 0.000000
used!
weight of 0 is 1.004972
weight of 1 is 0.540946
weight of 2 is -14.088889
weight of 3 is 1.000000
used!
accept
accept
weight of 0 is 1.552779
weight of 1 is 0.540967
weight of 2 is -13.911111
weight of 3 is 2.000000
used!
weight of 0 is 2.100587
weight of 1 is 0.540988
weight of 2 is -13.733333
weight of 3 is 3.000000
used!
accept
accept
weight of 0 is 1.565211
weight of 1 is -1.617523
weight of 2 is -14.977778
weight of 3 is 2.000000
not used!
accept
accept
accept
accept
accept
accept
accept
accept
accept
accept
accept
accept
accept
accept
weight of 0 is 1.003331
weight of 1 is -3.774831
weight of 2 is -15.155556
weight of 3 is 1.000000
not used!
accept
accept
deny
deny
deny
deny
weight of 0 is 1.565156
weight of 1 is -2.634210
weight of 2 is -14.622222
weight of 3 is 2.000000
used!
weight of 0 is 2.126981
weight of 1 is -1.493590
weight of 2 is -14.088889
weight of 3 is 3.000000
used!
accept
accept
accept
accept
accept
accept
accept
accept
accept
accept
accept
accept
accept
accept
accept
accept
accept
accept
accept
accept
accept
accept
accept
accept
weight of 0 is 1.565078
weight of 1 is -1.493646
weight of 2 is -14.088889
weight of 3 is 2.000000
not used!
accept
accept
weight of 0 is 1.003175
weight of 1 is -1.493684
weight of 2 is -14.088889
weight of 3 is 1.000000
not used!
accept
accept
weight of 0 is 0.467799
weight of 1 is -3.673685
weight of 2 is -14.088889
weight of 3 is 0.000000
not used!
deny
deny
deny
deny
deny
deny
deny
deny
deny
deny
weight of 0 is 1.015618
weight of 1 is -2.533410
weight of 2 is -14.088889
weight of 3 is 1.000000
used!
weight of 0 is 1.563438
weight of 1 is -1.393134
weight of 2 is -14.088889
weight of 3 is 2.000000
used!
weight of 0 is 1.028062
weight of 1 is -1.393139
weight of 2 is -14.088889
weight of 3 is 1.000000
not used!
accept
accept
weight of 0 is 1.575882
weight of 1 is -1.393118
weight of 2 is -13.911111
weight of 3 is 2.000000
used!
weight of 0 is 2.123702
weight of 1 is -1.393097
weight of 2 is -13.733333
weight of 3 is 3.000000
used!
accept
accept
weight of 0 is 2.685530
weight of 1 is -0.252765
weight of 2 is -13.733333
weight of 3 is 4.000000
used!
weight of 0 is 3.247358
weight of 1 is 0.887566
weight of 2 is -13.733333
weight of 3 is 5.000000
used!
weight of 0 is 2.711982
weight of 1 is 0.887559
weight of 2 is -13.733333
weight of 3 is 4.000000
not used!
accept
accept
accept
accept
accept
accept
accept
accept
accept
accept
accept
accept
accept
accept
accept
accept
accept
accept
accept
accept
weight of 0 is 2.176606
weight of 1 is 0.887503
weight of 2 is -13.733333
weight of 3 is 3.000000
not used!
accept
accept
weight of 0 is 1.641230
weight of 1 is 0.887494
weight of 2 is -13.733333
weight of 3 is 2.000000
not used!
accept
accept
accept
accept
weight of 0 is 1.093440
weight of 1 is -0.254144
weight of 2 is -13.733333
weight of 3 is 1.000000
not used!
accept
accept
accept
accept
accept
accept
accept
accept
accept
accept
accept
accept
accept
accept
accept
accept
accept
accept
accept
accept
accept
accept
accept
accept
accept
accept
accept
accept
deny
deny
accept
accept
accept
accept
accept
accept
accept
accept
deny
deny
accept
accept
accept
accept
accept
accept
accept
accept
accept
accept
accept
accept
deny
deny
accept
accept
deny
deny
accept
accept
accept
accept
deny
deny
accept
accept
accept
accept
accept
accept
deny
deny
accept
accept
accept
accept
accept
accept
accept
accept
accept
accept
accept
accept
accept
accept
accept
accept
accept
accept
accept
accept
accept
accept
accept
accept
weight of 0 is 0.531617
weight of 1 is -1.394945
weight of 2 is -13.733333
weight of 3 is 0.000000
not used!
accept
accept
deny
deny
accept
accept
deny
deny
deny
deny
deny
deny
weight of 0 is 1.079465
weight of 1 is -0.255778
weight of 2 is -13.733333
weight of 3 is 1.000000
used!
weight of 0 is 1.627314
weight of 1 is 0.883388
weight of 2 is -13.733333
weight of 3 is 2.000000
used!
accept
accept
weight of 0 is 2.175163
weight of 1 is 0.883410
weight of 2 is -13.555556
weight of 3 is 3.000000
used!
weight of 0 is 2.723012
weight of 1 is 0.883431
weight of 2 is -13.377778
weight of 3 is 4.000000
used!
accept
accept
accept
accept
accept
accept
accept
accept
accept
accept
accept
accept
accept
accept
accept
accept
accept
accept
accept
accept
accept
accept
accept
accept
deny
deny
deny
deny
accept
accept
weight of 0 is 3.284859
weight of 1 is 2.022381
weight of 2 is -12.666667
weight of 3 is 5.000000
used!
weight of 0 is 3.846706
weight of 1 is 3.161332
weight of 2 is -11.955556
weight of 3 is 6.000000
used!
accept
accept
accept
accept
accept
accept
accept
accept
accept
accept
accept
accept
accept
accept
accept
accept
accept
accept
accept
accept
accept
accept
accept
accept
accept
accept
accept
accept
accept
accept
accept
accept
accept
accept
accept
accept
accept
accept
accept
accept
accept
accept
accept
accept
accept
accept
accept
accept
accept
accept
accept
accept
accept
accept
accept
accept
accept
accept
accept
accept
accept
accept
accept
accept
accept
accept
weight of 0 is 3.298872
weight of 1 is 3.161276
weight of 2 is -11.955556
weight of 3 is 5.000000
not used!
accept
accept
accept
accept
accept
accept
accept
accept
accept
accept
accept
accept
accept
accept
accept
accept
weight of 0 is 2.737035
weight of 1 is 2.021884
weight of 2 is -11.955556
weight of 3 is 4.000000
not used!
accept
accept
accept
accept
accept
accept
accept
accept
accept
accept
accept
accept
deny
deny
accept
accept
accept
accept
accept
accept
deny
deny
accept
accept
accept
accept
accept
accept
accept
accept
accept
accept
accept
accept
accept
accept
accept
accept
accept
accept
accept
accept
accept
accept
accept
accept
accept
accept
deny
deny
accept
accept
accept
accept
accept
accept
accept
accept
accept
accept
accept
accept
accept
accept
accept
accept
accept
accept
weight of 0 is 2.175189
weight of 1 is 0.882942
weight of 2 is -11.955556
weight of 3 is 3.000000
not used!
accept
accept
accept
accept
accept
accept
accept
accept
accept
accept
accept
accept
accept
accept
accept
accept
accept
accept
accept
accept
accept
accept
accept
accept
accept
accept
deny
deny
accept
accept
deny
deny
accept
accept
accept
accept
deny
deny
deny
deny
accept
accept
deny
deny
weight of 0 is 1.627325
weight of 1 is 0.882886
weight of 2 is -11.955556
weight of 3 is 2.000000
not used!
accept
accept
deny
deny
weight of 0 is 1.065472
weight of 1 is -0.255762
weight of 2 is -12.666667
weight of 3 is 1.000000
not used!
accept
accept
deny
deny
accept
accept
deny
deny
accept
accept
accept
accept
deny
deny
accept
accept
deny
deny
deny
deny
accept
accept
deny
deny
deny
deny
accept
accept
deny
deny
deny
deny
deny
deny
accept
accept
weight of 0 is 1.600848
weight of 1 is -0.255619
weight of 2 is -12.311111
weight of 3 is 2.000000
used!
weight of 0 is 2.136225
weight of 1 is -0.255475
weight of 2 is -11.955556
weight of 3 is 3.000000
used!
accept
accept
deny
deny
accept
accept
deny
deny
accept
accept
accept
accept
accept
accept
accept
accept
deny
deny
deny
deny
accept
accept
accept
accept
weight of 0 is 2.698087
weight of 1 is -0.255454
weight of 2 is -11.066667
weight of 3 is 4.000000
used!
weight of 0 is 3.259950
weight of 1 is -0.255433
weight of 2 is -10.177778
weight of 3 is 5.000000
used!
accept
accept
accept
accept
deny
deny
weight of 0 is 2.698091
weight of 1 is -1.393489
weight of 2 is -10.177778
weight of 3 is 4.000000
not used!
accept
accept
deny
deny
deny
deny
weight of 0 is 2.150213
weight of 1 is -2.531517
weight of 2 is -10.355556
weight of 3 is 3.000000
not used!
deny
deny
accept
accept
accept
accept
deny
deny
accept
accept
deny
deny
deny
deny
deny
deny
accept
accept
deny
deny
weight of 0 is 1.588351
weight of 1 is -3.669502
weight of 2 is -10.888889
weight of 3 is 2.000000
not used!
deny
deny
deny
deny
deny
deny
deny
deny
deny
deny
accept
accept
deny
deny
deny
deny
deny
deny
deny
deny
deny
deny
deny
deny
deny
deny
accept
accept
deny
deny
deny
deny
deny
deny
deny
deny
deny
deny
accept
accept
deny
deny
deny
deny
accept
accept
weight of 0 is 1.026477
weight of 1 is -4.808026
weight of 2 is -10.888889
weight of 3 is 1.000000
not used!
accept
accept
weight of 0 is 0.464595
weight of 1 is -4.808667
weight of 2 is -11.066667
weight of 3 is 0.000000
not used!
deny
deny
deny
deny
deny
deny
deny
deny
accept
accept
deny
deny
weight of 0 is 1.000662
weight of 1 is -3.859734
weight of 2 is -10.000000
weight of 3 is 1.000000
used!
weight of 0 is 1.536729
weight of 1 is -2.910801
weight of 2 is -8.933333
weight of 3 is 2.000000
used!
deny
deny
accept
accept
deny
deny
deny
deny
accept
accept
deny
deny
deny
deny
deny
deny
accept
accept
deny
deny
accept
accept
deny
deny
deny
deny
weight of 0 is 0.974845
weight of 1 is -4.049813
weight of 2 is -8.933333
weight of 3 is 1.000000
not used!
weight of 0 is 0.412960
weight of 1 is -4.049872
weight of 2 is -9.111111
weight of 3 is 0.000000
not used!
deny
deny
deny
deny
weight of 0 is -0.148926
weight of 1 is -4.049921
weight of 2 is -9.288889
weight of 3 is -1.000000
not used!
deny
deny
deny
deny
deny
deny
weight of 0 is -0.710815
weight of 1 is -4.049971
weight of 2 is -9.466667
weight of 3 is -2.000000
not used!
deny
deny
deny
deny
deny
deny
deny
deny
deny
deny
deny
deny
deny
deny
weight of 0 is -0.163092
weight of 1 is -4.035098
weight of 2 is -9.400000
weight of 3 is -1.000000
used!
weight of 0 is 0.384632
weight of 1 is -4.020226
weight of 2 is -9.333333
weight of 3 is 0.000000
used!
deny
deny
deny
deny
deny
deny
deny
deny
weight of 0 is 0.932410
weight of 1 is -4.010827
weight of 2 is -8.355556
weight of 3 is 1.000000
used!
weight of 0 is 1.480189
weight of 1 is -4.001427
weight of 2 is -7.377778
weight of 3 is 2.000000
used!
deny
deny
deny
deny
weight of 0 is 0.944813
weight of 1 is -4.990323
weight of 2 is -7.377778
weight of 3 is 1.000000
not used!
accept
accept
deny
deny
accept
accept
deny
deny
accept
accept
deny
deny
deny
deny
deny
deny
deny
deny
weight of 0 is 0.409436
weight of 1 is -5.997346
weight of 2 is -7.377778
weight of 3 is 0.000000
not used!
deny
deny
deny
deny
weight of 0 is 0.957163
weight of 1 is -5.981613
weight of 2 is -6.511111
weight of 3 is 1.000000
used!
weight of 0 is 1.504890
weight of 1 is -5.965880
weight of 2 is -5.644444
weight of 3 is 2.000000
used!
accept
accept
deny
deny
deny
deny
deny
deny
accept
accept
accept
accept
deny
deny
deny
deny
deny
deny
deny
deny
deny
deny
deny
deny
accept
accept
deny
deny
deny
deny
weight of 0 is 0.957417
weight of 1 is -6.894322
weight of 2 is -5.644444
weight of 3 is 1.000000
not used!
deny
deny
deny
deny
accept
accept
deny
deny
deny
deny
accept
accept
deny
deny
deny
deny
deny
deny
deny
deny
accept
accept
accept
accept
accept
accept
deny
deny
deny
deny
deny
deny
accept
accept
deny
deny
weight of 0 is 0.422041
weight of 1 is -6.894336
weight of 2 is -5.644444
weight of 3 is 0.000000
not used!
deny
deny
deny
deny
weight of 0 is -0.113336
weight of 1 is -6.894937
weight of 2 is -5.644444
weight of 3 is -1.000000
not used!
deny
deny
deny
deny
deny
deny
deny
deny
deny
deny
weight of 0 is -0.660827
weight of 1 is -7.880984
weight of 2 is -5.733333
weight of 3 is -2.000000
not used!
deny
deny
deny
deny
deny
deny
deny
deny
weight of 0 is -1.196204
weight of 1 is -7.881026
weight of 2 is -5.733333
weight of 3 is -3.000000
not used!
deny
deny
deny
deny
deny
deny
deny
deny
deny
deny
deny
deny
weight of 0 is -1.744097
weight of 1 is -9.018333
weight of 2 is -5.911111
weight of 3 is -4.000000
not used!
deny
deny
deny
deny
deny
deny
weight of 0 is -2.305960
weight of 1 is -10.155752
weight of 2 is -5.911111
weight of 3 is -5.000000
not used!
deny
deny
deny
deny
weight of 0 is -2.853739
weight of 1 is -11.302429
weight of 2 is -6.266667
weight of 3 is -6.000000
not used!
weight of 0 is -3.401346
weight of 1 is -11.316446
weight of 2 is -6.533333
weight of 3 is -7.000000
not used!
deny
deny
deny
deny
weight of 0 is -3.949058
weight of 1 is -11.316446
weight of 2 is -6.533333
weight of 3 is -8.000000
not used!
deny
deny
deny
deny
deny
deny
weight of 0 is -3.401165
weight of 1 is -10.283961
weight of 2 is -6.533333
weight of 3 is -7.000000
used!
weight of 0 is -2.853272
weight of 1 is -9.251475
weight of 2 is -6.533333
weight of 3 is -6.000000
used!
deny
deny
deny
deny
deny
deny
weight of 0 is -2.305529
weight of 1 is -9.238690
weight of 2 is -6.222222
weight of 3 is -5.000000
used!
weight of 0 is -1.757787
weight of 1 is -9.225905
weight of 2 is -5.911111
weight of 3 is -4.000000
used!
deny
deny
deny
deny
deny
deny
deny
deny
deny
deny
deny
deny
weight of 0 is -2.305414
weight of 1 is -9.238391
weight of 2 is -6.000000
weight of 3 is -5.000000
not used!
weight of 0 is -2.853128
weight of 1 is -9.243313
weight of 2 is -6.088889
weight of 3 is -6.000000
not used!
deny
deny
deny
deny
weight of 0 is -3.400605
weight of 1 is -10.172055
weight of 2 is -6.088889
weight of 3 is -7.000000
not used!
deny
deny
weight of 0 is -2.852709
weight of 1 is -9.034899
weight of 2 is -6.088889
weight of 3 is -6.000000
used!
weight of 0 is -2.304814
weight of 1 is -7.897742
weight of 2 is -6.088889
weight of 3 is -5.000000
used!
deny
deny
deny
deny
weight of 0 is -2.852460
weight of 1 is -7.908833
weight of 2 is -6.177778
weight of 3 is -6.000000
not used!
deny
deny
deny
deny
deny
deny
deny
deny
deny
deny
deny
deny
deny
deny
deny
deny
deny
deny
weight of 0 is -2.304564
weight of 1 is -7.874256
weight of 2 is -6.000000
weight of 3 is -5.000000
used!
weight of 0 is -1.756668
weight of 1 is -7.839679
weight of 2 is -5.822222
weight of 3 is -4.000000
used!
deny
deny
deny
deny
weight of 0 is -1.208919
weight of 1 is -7.828195
weight of 2 is -5.511111
weight of 3 is -3.000000
used!
weight of 0 is -0.661170
weight of 1 is -7.816711
weight of 2 is -5.200000
weight of 3 is -2.000000
used!
deny
deny
deny
deny
weight of 0 is -1.208935
weight of 1 is -7.816712
weight of 2 is -5.200000
weight of 3 is -3.000000
not used!
deny
deny
deny
deny
deny
deny
deny
deny
deny
deny
deny
deny
deny
deny
deny
deny
deny
deny
deny
deny
deny
deny
deny
deny
weight of 0 is -0.661041
weight of 1 is -7.792923
weight of 2 is -5.200000
weight of 3 is -2.000000
used!
weight of 0 is -0.113146
weight of 1 is -7.769135
weight of 2 is -5.200000
weight of 3 is -1.000000
used!
deny
deny
deny
deny
deny
deny
deny
deny
deny
deny
deny
deny
deny
deny
weight of 0 is 0.434606
weight of 1 is -7.765594
weight of 2 is -4.733333
weight of 3 is 0.000000
used!
weight of 0 is 0.982360
weight of 1 is -7.762052
weight of 2 is -4.266667
weight of 3 is 1.000000
used!
accept
accept
weight of 0 is 0.434642
weight of 1 is -7.763902
weight of 2 is -4.355556
weight of 3 is 0.000000
not used!
deny
deny
deny
deny
deny
deny
accept
accept
weight of 0 is -0.112875
weight of 1 is -7.766406
weight of 2 is -4.444444
weight of 3 is -1.000000
not used!
deny
deny
weight of 0 is 0.435021
weight of 1 is -7.740874
weight of 2 is -4.444444
weight of 3 is 0.000000
used!
weight of 0 is 0.982918
weight of 1 is -7.715342
weight of 2 is -4.444444
weight of 3 is 1.000000
used!
accept
accept
weight of 0 is 0.435198
weight of 1 is -7.727015
weight of 2 is -4.444444
weight of 3 is 0.000000
not used!
deny
deny
accept
accept
deny
deny
deny
deny
accept
accept
weight of 0 is 0.983095
weight of 1 is -7.694069
weight of 2 is -4.266667
weight of 3 is 1.000000
used!
weight of 0 is 1.530991
weight of 1 is -7.661123
weight of 2 is -4.088889
weight of 3 is 2.000000
used!
weight of 0 is 0.983271
weight of 1 is -7.661126
weight of 2 is -4.088889
weight of 3 is 1.000000
not used!
deny
deny
accept
accept
accept
accept
deny
deny
deny
deny
weight of 0 is 1.530773
weight of 1 is -7.652121
weight of 2 is -3.200000
weight of 3 is 2.000000
used!
weight of 0 is 2.078276
weight of 1 is -7.643116
weight of 2 is -2.311111
weight of 3 is 3.000000
used!
accept
accept
weight of 0 is 1.530561
weight of 1 is -7.650888
weight of 2 is -2.488889
weight of 3 is 2.000000
not used!
accept
accept
accept
accept
accept
accept
weight of 0 is 0.983045
weight of 1 is -7.671673
weight of 2 is -2.755556
weight of 3 is 1.000000
not used!
accept
accept
deny
deny
weight of 0 is 0.435573
weight of 1 is -7.694682
weight of 2 is -2.755556
weight of 3 is 0.000000
not used!
deny
deny
accept
accept
deny
deny
accept
accept
accept
accept
weight of 0 is 0.983335
weight of 1 is -7.680588
weight of 2 is -1.733333
weight of 3 is 1.000000
used!
weight of 0 is 1.531096
weight of 1 is -7.666495
weight of 2 is -0.711111
weight of 3 is 2.000000
used!
accept
accept
accept
accept
accept
accept
accept
accept
deny
deny
accept
accept
deny
deny
deny
deny
accept
accept
accept
accept
accept
accept
accept
accept
accept
accept
accept
accept
accept
accept
accept
accept
accept
accept
accept
accept
accept
accept
weight of 0 is 0.983621
weight of 1 is -7.687451
weight of 2 is -0.888889
weight of 3 is 1.000000
not used!
accept
accept
weight of 0 is 0.436116
weight of 1 is -7.689408
weight of 2 is -1.066667
weight of 3 is 0.000000
not used!
deny
deny
deny
deny
weight of 0 is -0.111392
weight of 1 is -7.710813
weight of 2 is -1.333333
weight of 3 is -1.000000
not used!
deny
deny
deny
deny
deny
deny
deny
deny
deny
deny
weight of 0 is -0.659119
weight of 1 is -7.710817
weight of 2 is -1.333333
weight of 3 is -2.000000
not used!
deny
deny
deny
deny
deny
deny
deny
deny
weight of 0 is -1.206712
weight of 1 is -7.735274
weight of 2 is -1.600000
weight of 3 is -3.000000
not used!
deny
deny
deny
deny
deny
deny
deny
deny
deny
deny
deny
deny
deny
deny
deny
deny
deny
deny
deny
deny
deny
deny
weight of 0 is -1.754441
weight of 1 is -7.741891
weight of 2 is -1.600000
weight of 3 is -4.000000
not used!
deny
deny
deny
deny
deny
deny
deny
deny
deny
deny
weight of 0 is -2.302211
weight of 1 is -7.743479
weight of 2 is -1.644444
weight of 3 is -5.000000
not used!
deny
deny
deny
deny
deny
deny
weight of 0 is -2.849941
weight of 1 is -7.743480
weight of 2 is -1.644444
weight of 3 is -6.000000
not used!
deny
deny
deny
deny
deny
deny
weight of 0 is -3.397724
weight of 1 is -7.749651
weight of 2 is -1.644444
weight of 3 is -7.000000
not used!
deny
deny
weight of 0 is -3.945366
weight of 1 is -7.761033
weight of 2 is -1.911111
weight of 3 is -8.000000
not used!
deny
deny
weight of 0 is -4.493098
weight of 1 is -7.766309
weight of 2 is -1.955556
weight of 3 is -9.000000
not used!
deny
deny
deny
deny
deny
deny
deny
deny
deny
deny
deny
deny
weight of 0 is -3.945315
weight of 1 is -7.766305
weight of 2 is -1.955556
weight of 3 is -8.000000
used!
weight of 0 is -3.397532
weight of 1 is -7.766302
weight of 2 is -1.955556
weight of 3 is -7.000000
used!
deny
deny
deny
deny
deny
deny
deny
deny
deny
deny
deny
deny
deny
deny
deny
deny
deny
deny
deny
deny
weight of 0 is -2.849634
weight of 1 is -3.215968
weight of 2 is -1.955556
weight of 3 is -6.000000
used!
weight of 0 is -2.301735
weight of 1 is 1.334365
weight of 2 is -1.955556
weight of 3 is -5.000000
used!
deny
deny
deny
deny
deny
deny
weight of 0 is -1.754227
weight of 1 is 1.336488
weight of 2 is -1.955556
weight of 3 is -4.000000
used!
weight of 0 is -1.206718
weight of 1 is 1.338611
weight of 2 is -1.955556
weight of 3 is -3.000000
used!
deny
deny
deny
deny
deny
deny
deny
deny
deny
deny
deny
deny
weight of 0 is -0.658819
weight of 1 is 1.372694
weight of 2 is -1.777778
weight of 3 is -2.000000
used!
weight of 0 is -0.110920
weight of 1 is 1.406776
weight of 2 is -1.600000
weight of 3 is -1.000000
used!
deny
deny
deny
deny
deny
deny
deny
deny
deny
deny
deny
deny
deny
deny
deny
deny
deny
deny
deny
deny
deny
deny
deny
deny
weight of 0 is 0.436976
weight of 1 is 1.443806
weight of 2 is -1.600000
weight of 3 is 0.000000
used!
weight of 0 is 0.984873
weight of 1 is 1.480835
weight of 2 is -1.600000
weight of 3 is 1.000000
used!
accept
accept
accept
accept
accept
accept
accept
accept
accept
accept
weight of 0 is 1.532772
weight of 1 is 1.514857
weight of 2 is -1.600000
weight of 3 is 2.000000
used!
weight of 0 is 2.080672
weight of 1 is 1.548878
weight of 2 is -1.600000
weight of 3 is 3.000000
used!
accept
accept
accept
accept
accept
accept
accept
accept
accept
accept
accept
accept
accept
accept
accept
accept
accept
accept
accept
accept
accept
accept
accept
accept
accept
accept
accept
accept
accept
accept
accept
accept
accept
accept
weight of 0 is 1.533181
weight of 1 is 1.527281
weight of 2 is -1.688889
weight of 3 is 2.000000
not used!
accept
accept
accept
accept
accept
accept
weight of 0 is 0.985545
weight of 1 is 1.515219
weight of 2 is -1.688889
weight of 3 is 1.000000
not used!
accept
accept
weight of 0 is 0.437902
weight of 1 is 1.494594
weight of 2 is -1.955556
weight of 3 is 0.000000
not used!
weight of 0 is -0.109610
weight of 1 is 1.474711
weight of 2 is -1.955556
weight of 3 is -1.000000
not used!
deny
deny
deny
deny
deny
deny
deny
deny
weight of 0 is -0.657199
weight of 1 is 1.459319
weight of 2 is -2.400000
weight of 3 is -2.000000
not used!
weight of 0 is -1.204958
weight of 1 is 1.447523
weight of 2 is -2.666667
weight of 3 is -3.000000
not used!
deny
deny
weight of 0 is -1.752743
weight of 1 is 1.422359
weight of 2 is -2.888889
weight of 3 is -4.000000
not used!
weight of 0 is -2.300416
weight of 1 is 1.413283
weight of 2 is -2.977778
weight of 3 is -5.000000
not used!
weight of 0 is -2.848176
weight of 1 is 1.408273
weight of 2 is -4.022222
weight of 3 is -6.000000
not used!
deny
deny
weight of 0 is -3.395662
weight of 1 is 1.385794
weight of 2 is -4.288889
weight of 3 is -7.000000
not used!
deny
deny
weight of 0 is -2.822072
weight of 1 is 1.549849
weight of 2 is -3.933333
weight of 3 is -6.000000
used!
weight of 0 is -2.248481
weight of 1 is 1.713904
weight of 2 is -3.577778
weight of 3 is -5.000000
used!
weight of 0 is -2.796256
weight of 1 is 1.688107
weight of 2 is -3.977778
weight of 3 is -6.000000
not used!
deny
deny
deny
deny
deny
deny
weight of 0 is -3.343734
weight of 1 is 1.664875
weight of 2 is -4.155556
weight of 3 is -7.000000
not used!
deny
deny
weight of 0 is -3.891233
weight of 1 is 1.664874
weight of 2 is -4.155556
weight of 3 is -8.000000
not used!
deny
deny
deny
deny
weight of 0 is -3.317642
weight of 1 is 1.709714
weight of 2 is -3.088889
weight of 3 is -7.000000
used!
weight of 0 is -2.744051
weight of 1 is 1.754555
weight of 2 is -2.022222
weight of 3 is -6.000000
used!
weight of 0 is -3.291813
weight of 1 is 1.732987
weight of 2 is -2.044444
weight of 3 is -7.000000
not used!
deny
deny
weight of 0 is -2.718222
weight of 1 is 1.732992
weight of 2 is -2.044444
weight of 3 is -6.000000
used!
weight of 0 is -2.144631
weight of 1 is 1.732996
weight of 2 is -2.044444
weight of 3 is -5.000000
used!
weight of 0 is -2.692140
weight of 1 is 1.714475
weight of 2 is -2.311111
weight of 3 is -6.000000
not used!
deny
deny
weight of 0 is -3.239903
weight of 1 is 1.695803
weight of 2 is -2.400000
weight of 3 is -7.000000
not used!
weight of 0 is -3.787374
weight of 1 is 1.671381
weight of 2 is -2.577778
weight of 3 is -8.000000
not used!
deny
deny
weight of 0 is -4.334956
weight of 1 is 1.659685
weight of 2 is -3.555556
weight of 3 is -9.000000
not used!
deny
deny
deny
deny
weight of 0 is -4.826741
weight of 1 is 1.659536
weight of 2 is -4.577778
weight of 3 is -10.000000
not used!
deny
deny
warn: ignoring syscall mprotect(...)
weight of 0 is -5.374394
weight of 1 is 1.648942
weight of 2 is -5.911111
weight of 3 is -11.000000
not used!
weight of 0 is -5.921879
weight of 1 is 1.633008
weight of 2 is -7.066667
weight of 3 is -12.000000
not used!
deny
deny
weight of 0 is -6.469393
weight of 1 is 1.630634
weight of 2 is -7.333333
weight of 3 is -13.000000
not used!
weight of 0 is -7.017165
weight of 1 is 1.607392
weight of 2 is -7.733333
weight of 3 is -14.000000
not used!
deny
deny
weight of 0 is -7.564683
weight of 1 is 1.586769
weight of 2 is -8.533333
weight of 3 is -15.000000
not used!
weight of 0 is -8.112158
weight of 1 is 1.580965
weight of 2 is -9.422222
weight of 3 is -16.000000
not used!
weight of 0 is -8.659650
weight of 1 is 1.579604
weight of 2 is -9.511111
weight of 3 is -17.000000
not used!
deny
deny
weight of 0 is -9.207261
weight of 1 is 1.556312
weight of 2 is -9.777778
weight of 3 is -18.000000
not used!
weight of 0 is -9.755027
weight of 1 is 1.545790
weight of 2 is -10.088889
weight of 3 is -19.000000
not used!
weight of 0 is -10.302534
weight of 1 is 1.524536
weight of 2 is -11.422222
weight of 3 is -20.000000
not used!
weight of 0 is -10.850309
weight of 1 is 1.500479
weight of 2 is -12.088889
weight of 3 is -21.000000
not used!
deny
deny
deny
deny
deny
deny
deny
deny
deny
deny
deny
deny
deny
deny
deny
deny
deny
deny
deny
deny
deny
deny
deny
deny
weight of 0 is -10.314257
weight of 1 is 2.425615
weight of 2 is -12.000000
weight of 3 is -20.000000
used!
weight of 0 is -9.778204
weight of 1 is 3.350751
weight of 2 is -11.911111
weight of 3 is -19.000000
used!
deny
deny
deny
deny
deny
deny
deny
deny
deny
deny
deny
deny
deny
deny
weight of 0 is -9.242091
weight of 1 is 3.353664
weight of 2 is -11.733333
weight of 3 is -18.000000
used!
weight of 0 is -8.705977
weight of 1 is 3.356578
weight of 2 is -11.555556
weight of 3 is -17.000000
used!
deny
deny
deny
deny
deny
deny
deny
deny
deny
deny
deny
deny
deny
deny
deny
deny
deny
deny
deny
deny
weight of 0 is -8.169925
weight of 1 is 4.308006
weight of 2 is -11.111111
weight of 3 is -16.000000
used!
weight of 0 is -7.633872
weight of 1 is 5.259435
weight of 2 is -10.666667
weight of 3 is -15.000000
used!
deny
deny
deny
deny
deny
deny
deny
deny
weight of 0 is -7.097768
weight of 1 is 6.180538
weight of 2 is -10.666667
weight of 3 is -14.000000
used!
weight of 0 is -6.561663
weight of 1 is 7.101641
weight of 2 is -10.666667
weight of 3 is -13.000000
used!
deny
deny
weight of 0 is -6.025610
weight of 1 is 7.105799
weight of 2 is -9.511111
weight of 3 is -12.000000
used!
weight of 0 is -5.489557
weight of 1 is 7.109957
weight of 2 is -8.355556
weight of 3 is -11.000000
used!
deny
deny
weight of 0 is -4.953453
weight of 1 is 7.112345
weight of 2 is -8.177778
weight of 3 is -10.000000
used!
weight of 0 is -4.417348
weight of 1 is 7.114733
weight of 2 is -8.000000
weight of 3 is -9.000000
used!
deny
deny
weight of 0 is -3.869930
weight of 1 is 8.037135
weight of 2 is -8.000000
weight of 3 is -8.000000
used!
weight of 0 is -3.322512
weight of 1 is 8.959536
weight of 2 is -8.000000
weight of 3 is -7.000000
used!
deny
deny
weight of 0 is -2.786409
weight of 1 is 9.910153
weight of 2 is -8.000000
weight of 3 is -6.000000
used!
weight of 0 is -2.250306
weight of 1 is 10.860771
weight of 2 is -8.000000
weight of 3 is -5.000000
used!
accept
accept
accept
accept
weight of 0 is -1.714200
weight of 1 is 10.864936
weight of 2 is -8.000000
weight of 3 is -4.000000
used!
weight of 0 is -1.178093
weight of 1 is 10.869101
weight of 2 is -8.000000
weight of 3 is -3.000000
used!
deny
deny
deny
deny
deny
deny
weight of 0 is -0.641986
weight of 1 is 10.869157
weight of 2 is -7.644444
weight of 3 is -2.000000
used!
weight of 0 is -0.105878
weight of 1 is 10.869213
weight of 2 is -7.288889
weight of 3 is -1.000000
used!
deny
deny
deny
deny
deny
deny
deny
deny
deny
deny
deny
deny
deny
deny
deny
deny
deny
deny
deny
deny
deny
deny
weight of 0 is -0.641254
weight of 1 is 9.850757
weight of 2 is -7.644444
weight of 3 is -2.000000
not used!
deny
deny
deny
deny
weight of 0 is -1.188815
weight of 1 is 8.859814
weight of 2 is -8.622222
weight of 3 is -3.000000
not used!
deny
deny
weight of 0 is -1.736562
weight of 1 is 8.846735
weight of 2 is -9.800000
weight of 3 is -4.000000
not used!
deny
deny
weight of 0 is -2.284061
weight of 1 is 8.826331
weight of 2 is -10.866667
weight of 3 is -5.000000
not used!
deny
deny
deny
deny
weight of 0 is -1.736247
weight of 1 is 8.844681
weight of 2 is -9.800000
weight of 3 is -4.000000
used!
weight of 0 is -1.188433
weight of 1 is 8.863032
weight of 2 is -8.733333
weight of 3 is -3.000000
used!
weight of 0 is -1.735955
weight of 1 is 8.832353
weight of 2 is -8.822222
weight of 3 is -4.000000
not used!
warn: ignoring syscall mprotect(...)
weight of 0 is -2.283729
weight of 1 is 8.813950
weight of 2 is -9.755556
weight of 3 is -5.000000
not used!
weight of 0 is -2.845613
weight of 1 is 7.663192
weight of 2 is -10.644444
weight of 3 is -6.000000
not used!
deny
deny
weight of 0 is -3.393147
weight of 1 is 6.495009
weight of 2 is -10.911111
weight of 3 is -7.000000
not used!
weight of 0 is -3.928523
weight of 1 is 5.505620
weight of 2 is -11.622222
weight of 3 is -8.000000
not used!
weight of 0 is -4.476302
weight of 1 is 4.498398
weight of 2 is -12.266667
weight of 3 is -9.000000
not used!
weight of 0 is -5.038168
weight of 1 is 3.349571
weight of 2 is -13.155556
weight of 3 is -10.000000
not used!
weight of 0 is -5.585944
weight of 1 is 2.200457
weight of 2 is -13.377778
weight of 3 is -11.000000
not used!
weight of 0 is -6.133716
weight of 1 is 2.198587
weight of 2 is -14.355556
weight of 3 is -12.000000
not used!
deny
deny
weight of 0 is -6.681247
weight of 1 is 2.178875
weight of 2 is -14.977778
weight of 3 is -13.000000
not used!
weight of 0 is -7.228991
weight of 1 is 2.163566
weight of 2 is -15.355556
weight of 3 is -14.000000
not used!
weight of 0 is -7.776467
weight of 1 is 2.141531
weight of 2 is -15.888889
weight of 3 is -15.000000
not used!
weight of 0 is -8.323961
weight of 1 is 2.140075
weight of 2 is -17.133333
weight of 3 is -16.000000
not used!
weight of 0 is -8.871518
weight of 1 is 2.132599
weight of 2 is -18.288889
weight of 3 is -17.000000
not used!
deny
deny
weight of 0 is -9.419245
weight of 1 is 2.120903
weight of 2 is -18.777778
weight of 3 is -18.000000
not used!
weight of 0 is -9.966723
weight of 1 is 2.100455
weight of 2 is -20.111111
weight of 3 is -19.000000
not used!
weight of 0 is -10.514221
weight of 1 is 2.098811
weight of 2 is -20.733333
weight of 3 is -20.000000
not used!
weight of 0 is -11.049597
weight of 1 is 1.114823
weight of 2 is -21.088889
weight of 3 is -21.000000
not used!
weight of 0 is -11.597498
weight of 1 is 0.095876
weight of 2 is -21.444444
weight of 3 is -22.000000
not used!
weight of 0 is -12.132874
weight of 1 is -0.923376
weight of 2 is -21.444444
weight of 3 is -23.000000
not used!
weight of 0 is -12.706465
weight of 1 is -2.077253
weight of 2 is -21.444444
weight of 3 is -24.000000
not used!
deny
deny
deny
deny
deny
deny
deny
deny
deny
deny
deny
deny
weight of 0 is -12.214468
weight of 1 is 1.097222
weight of 2 is -21.266667
weight of 3 is -23.000000
used!
weight of 0 is -11.722470
weight of 1 is 4.271697
weight of 2 is -21.088889
weight of 3 is -22.000000
used!
deny
deny
deny
deny
weight of 0 is -11.230471
weight of 1 is 8.787360
weight of 2 is -20.733333
weight of 3 is -21.000000
used!
weight of 0 is -10.738471
weight of 1 is 13.303022
weight of 2 is -20.377778
weight of 3 is -20.000000
used!
deny
deny
weight of 0 is -10.246472
weight of 1 is 13.303036
weight of 2 is -20.377778
weight of 3 is -19.000000
used!
weight of 0 is -9.754472
weight of 1 is 13.303050
weight of 2 is -20.377778
weight of 3 is -18.000000
used!
deny
deny
weight of 0 is -9.262472
weight of 1 is 16.466413
weight of 2 is -20.200000
weight of 3 is -17.000000
used!
weight of 0 is -8.770472
weight of 1 is 19.629775
weight of 2 is -20.022222
weight of 3 is -16.000000
used!
accept
accept
weight of 0 is -8.239613
weight of 1 is 20.088483
weight of 2 is -19.844444
weight of 3 is -15.000000
used!
weight of 0 is -7.708753
weight of 1 is 20.547191
weight of 2 is -19.666667
weight of 3 is -14.000000
used!
accept
accept
weight of 0 is -7.216753
weight of 1 is 20.547212
weight of 2 is -19.311111
weight of 3 is -13.000000
used!
weight of 0 is -6.724753
weight of 1 is 20.547233
weight of 2 is -18.955556
weight of 3 is -12.000000
used!
deny
deny
deny
deny
deny
deny
weight of 0 is -6.232752
weight of 1 is 20.547290
weight of 2 is -18.777778
weight of 3 is -11.000000
used!
weight of 0 is -5.740750
weight of 1 is 20.547346
weight of 2 is -18.600000
weight of 3 is -10.000000
used!
deny
deny
weight of 0 is -5.248749
weight of 1 is 20.547367
weight of 2 is -18.244444
weight of 3 is -9.000000
used!
weight of 0 is -4.756747
weight of 1 is 20.547388
weight of 2 is -17.888889
weight of 3 is -8.000000
used!
deny
deny
weight of 0 is -4.264746
weight of 1 is 20.547402
weight of 2 is -17.888889
weight of 3 is -7.000000
used!
weight of 0 is -3.772744
weight of 1 is 20.547416
weight of 2 is -17.888889
weight of 3 is -6.000000
used!
deny
deny
weight of 0 is -3.280742
weight of 1 is 20.547438
weight of 2 is -17.711111
weight of 3 is -5.000000
used!
weight of 0 is -2.788740
weight of 1 is 20.547459
weight of 2 is -17.533333
weight of 3 is -4.000000
used!
accept
accept
accept
accept
weight of 0 is -2.296738
weight of 1 is 20.547480
weight of 2 is -17.177778
weight of 3 is -3.000000
used!
weight of 0 is -1.804736
weight of 1 is 20.547501
weight of 2 is -16.822222
weight of 3 is -2.000000
used!
deny
deny
deny
deny
deny
deny
weight of 0 is -1.312733
weight of 1 is 20.547557
weight of 2 is -16.644444
weight of 3 is -1.000000
used!
weight of 0 is -0.820730
weight of 1 is 20.547614
weight of 2 is -16.466667
weight of 3 is 0.000000
used!
deny
deny
weight of 0 is -0.328726
weight of 1 is 20.547635
weight of 2 is -16.111111
weight of 3 is 1.000000
used!
weight of 0 is 0.163278
weight of 1 is 20.547656
weight of 2 is -15.755556
weight of 3 is 2.000000
used!
deny
deny
weight of 0 is 0.655281
weight of 1 is 20.547670
weight of 2 is -15.755556
weight of 3 is 3.000000
used!
weight of 0 is 1.147285
weight of 1 is 20.547684
weight of 2 is -15.755556
weight of 3 is 4.000000
used!
accept
accept
weight of 0 is 1.639289
weight of 1 is 20.547705
weight of 2 is -15.577778
weight of 3 is 5.000000
used!
weight of 0 is 2.131293
weight of 1 is 20.547726
weight of 2 is -15.400000
weight of 3 is 6.000000
used!
accept
accept
accept
accept
accept
accept
accept
accept
accept
accept
accept
accept
warn: ignoring syscall mprotect(...)
accept
accept
accept
accept
accept
accept
accept
accept
accept
accept
weight of 0 is 1.583870
weight of 1 is 19.626640
weight of 2 is -15.755556
weight of 3 is 5.000000
not used!
warn: ignoring syscall mprotect(...)
deny
deny
accept
accept
deny
deny
accept
accept
deny
deny
accept
accept
accept
accept
accept
accept
deny
deny
accept
accept
accept
accept
deny
deny
deny
deny
deny
deny
accept
accept
deny
deny
accept
accept
deny
deny
accept
accept
deny
deny
accept
accept
deny
deny
accept
accept
deny
deny
accept
accept
accept
accept
accept
accept
accept
accept
deny
deny
accept
accept
accept
accept
deny
deny
accept
accept
accept
accept
accept
accept
weight of 0 is 1.053005
weight of 1 is 16.463632
weight of 2 is -15.755556
weight of 3 is 4.000000
not used!
accept
accept
weight of 0 is 0.560997
weight of 1 is 13.300681
weight of 2 is -15.755556
weight of 3 is 3.000000
not used!
accept
accept
accept
accept
deny
deny
deny
deny
deny
deny
deny
deny
deny
deny
accept
accept
deny
deny
deny
deny
accept
accept
deny
deny
accept
accept
deny
deny
accept
accept
deny
deny
accept
accept
accept
accept
weight of 0 is 0.025264
weight of 1 is 11.163360
weight of 2 is -16.111111
weight of 3 is 2.000000
not used!
accept
accept
accept
accept
accept
accept
deny
deny
accept
accept
accept
accept
weight of 0 is 0.598855
weight of 1 is 11.163407
weight of 2 is -15.044444
weight of 3 is 3.000000
used!
weight of 0 is 1.172446
weight of 1 is 11.163454
weight of 2 is -13.977778
weight of 3 is 4.000000
used!
accept
accept
accept
accept
deny
deny
accept
accept
accept
accept
deny
deny
deny
deny
accept
accept
deny
deny
accept
accept
deny
deny
deny
deny
weight of 0 is 0.637069
weight of 1 is 11.162299
weight of 2 is -14.333333
weight of 3 is 3.000000
not used!
deny
deny
accept
accept
deny
deny
accept
accept
accept
accept
accept
accept
accept
accept
accept
accept
accept
accept
accept
accept
deny
deny
accept
accept
accept
accept
deny
deny
accept
accept
accept
accept
deny
deny
weight of 0 is 0.049466
weight of 1 is 10.021767
weight of 2 is -15.577778
weight of 3 is 2.000000
not used!
deny
deny
deny
deny
accept
accept
weight of 0 is -0.503766
weight of 1 is 9.312861
weight of 2 is -15.977778
weight of 3 is 1.000000
not used!
weight of 0 is -1.039554
weight of 1 is 7.892957
weight of 2 is -16.511111
weight of 3 is 0.000000
not used!
deny
deny
deny
deny
accept
accept
weight of 0 is -1.575349
weight of 1 is 7.892922
weight of 2 is -16.511111
weight of 3 is -1.000000
not used!
deny
deny
deny
deny
weight of 0 is -2.148939
weight of 1 is 6.901642
weight of 2 is -16.511111
weight of 3 is -2.000000
not used!
deny
deny
deny
deny
weight of 0 is -2.722530
weight of 1 is 6.901637
weight of 2 is -16.511111
weight of 3 is -3.000000
not used!
deny
deny
weight of 0 is -2.148939
weight of 1 is 6.901656
weight of 2 is -16.511111
weight of 3 is -2.000000
used!
weight of 0 is -1.575348
weight of 1 is 6.901675
weight of 2 is -16.511111
weight of 3 is -1.000000
used!
deny
deny
deny
deny
weight of 0 is -1.001757
weight of 1 is 6.901783
weight of 2 is -16.511111
weight of 3 is 0.000000
used!
weight of 0 is -0.428166
weight of 1 is 6.901891
weight of 2 is -16.511111
weight of 3 is 1.000000
used!
accept
accept
deny
deny
accept
accept
accept
accept
deny
deny
accept
accept
weight of 0 is -1.001757
weight of 1 is 6.901881
weight of 2 is -16.511111
weight of 3 is 0.000000
not used!
accept
accept
accept
accept
weight of 0 is -1.575348
weight of 1 is 6.901872
weight of 2 is -16.511111
weight of 3 is -1.000000
not used!
deny
deny
deny
deny
deny
deny
weight of 0 is -1.006371
weight of 1 is 6.901928
weight of 2 is -16.511111
weight of 3 is 0.000000
used!
weight of 0 is -0.437393
weight of 1 is 6.901984
weight of 2 is -16.511111
weight of 3 is 1.000000
used!
accept
accept
weight of 0 is 0.131585
weight of 1 is 6.902005
weight of 2 is -16.377778
weight of 3 is 2.000000
used!
weight of 0 is 0.700563
weight of 1 is 6.902026
weight of 2 is -16.244444
weight of 3 is 3.000000
used!
weight of 0 is 0.152749
weight of 1 is 5.939102
weight of 2 is -16.244444
weight of 3 is 2.000000
not used!
accept
accept
weight of 0 is -0.395065
weight of 1 is 5.938703
weight of 2 is -16.600000
weight of 3 is 1.000000
not used!
accept
accept
weight of 0 is -0.942879
weight of 1 is 5.938666
weight of 2 is -16.955556
weight of 3 is 0.000000
not used!
accept
accept
accept
accept
accept
accept
weight of 0 is -1.478255
weight of 1 is 5.938663
weight of 2 is -16.955556
weight of 3 is -1.000000
not used!
deny
deny
deny
deny
deny
deny
weight of 0 is -0.909273
weight of 1 is 5.938720
weight of 2 is -16.955556
weight of 3 is 0.000000
used!
weight of 0 is -0.340292
weight of 1 is 5.938776
weight of 2 is -16.955556
weight of 3 is 1.000000
used!
accept
accept
weight of 0 is 0.228690
weight of 1 is 5.938796
weight of 2 is -16.822222
weight of 3 is 2.000000
used!
weight of 0 is 0.797673
weight of 1 is 5.938817
weight of 2 is -16.688889
weight of 3 is 3.000000
used!
accept
accept
accept
accept
weight of 0 is 0.305732
weight of 1 is 2.403299
weight of 2 is -17.333333
weight of 3 is 2.000000
not used!
accept
accept
accept
accept
accept
accept
weight of 0 is -0.229644
weight of 1 is -1.132271
weight of 2 is -17.333333
weight of 3 is 1.000000
not used!
accept
accept
weight of 0 is -0.721665
weight of 1 is -4.667112
weight of 2 is -17.666667
weight of 3 is 0.000000
not used!
accept
accept
weight of 0 is -1.257452
weight of 1 is -8.229451
weight of 2 is -18.555556
weight of 3 is -1.000000
not used!
deny
deny
deny
deny
deny
deny
weight of 0 is -0.688465
weight of 1 is -8.229395
weight of 2 is -18.555556
weight of 3 is 0.000000
used!
weight of 0 is -0.119478
weight of 1 is -8.229338
weight of 2 is -18.555556
weight of 3 is 1.000000
used!
accept
accept
weight of 0 is 0.449508
weight of 1 is -8.229318
weight of 2 is -18.422222
weight of 3 is 2.000000
used!
weight of 0 is 1.018496
weight of 1 is -8.229297
weight of 2 is -18.288889
weight of 3 is 3.000000
used!
accept
accept
accept
accept
accept
accept
weight of 0 is 0.470978
weight of 1 is -9.184125
weight of 2 is -18.288889
weight of 3 is 2.000000
not used!
accept
accept
accept
accept
accept
accept
accept
accept
accept
accept
weight of 0 is -0.102613
weight of 1 is -10.204066
weight of 2 is -19.355556
weight of 3 is 1.000000
not used!
accept
accept
accept
accept
weight of 0 is -0.689871
weight of 1 is -11.316537
weight of 2 is -19.800000
weight of 3 is 0.000000
not used!
accept
accept
accept
accept
accept
accept
accept
accept
weight of 0 is -1.277126
weight of 1 is -12.428716
weight of 2 is -19.800000
weight of 3 is -1.000000
not used!
deny
deny
deny
deny
deny
deny
deny
deny
weight of 0 is -1.292252
weight of 1 is -14.817251
weight of 2 is -20.866667
weight of 3 is -2.000000
not used!
deny
deny
weight of 0 is -0.723253
weight of 1 is -14.817177
weight of 2 is -20.866667
weight of 3 is -1.000000
used!
weight of 0 is -0.154254
weight of 1 is -14.817104
weight of 2 is -20.866667
weight of 3 is 0.000000
used!
deny
deny
deny
deny
weight of 0 is -0.727845
weight of 1 is -19.369384
weight of 2 is -21.222222
weight of 3 is -1.000000
not used!
deny
deny
deny
deny
weight of 0 is -0.158844
weight of 1 is -19.369307
weight of 2 is -20.911111
weight of 3 is 0.000000
used!
weight of 0 is 0.410157
weight of 1 is -19.369229
weight of 2 is -20.600000
weight of 3 is 1.000000
used!
weight of 0 is -0.163434
weight of 1 is -19.369234
weight of 2 is -20.600000
weight of 3 is 0.000000
not used!
deny
deny
weight of 0 is 0.405567
weight of 1 is -19.369219
weight of 2 is -20.600000
weight of 3 is 1.000000
used!
weight of 0 is 0.974569
weight of 1 is -19.369204
weight of 2 is -20.600000
weight of 3 is 2.000000
used!
weight of 0 is 0.400978
weight of 1 is -19.369223
weight of 2 is -20.600000
weight of 3 is 1.000000
not used!
accept
accept
weight of 0 is 0.969979
weight of 1 is -19.369203
weight of 2 is -20.466667
weight of 3 is 2.000000
used!
weight of 0 is 1.538981
[...]
weight of 2 is -5.733333
weight of 3 is -10.000000
not used!
deny
deny
deny
deny
deny
deny
deny
deny
deny
deny
weight of 0 is 6.272092
weight of 1 is -6.030342
weight of 2 is -5.377778
weight of 3 is -9.000000
used!
weight of 0 is 6.845683
weight of 1 is -6.029754
weight of 2 is -5.022222
weight of 3 is -8.000000
used!
weight of 0 is 6.254574
weight of 1 is -7.510460
weight of 2 is -5.377778
weight of 3 is -9.000000
not used!
deny
deny
weight of 0 is 6.828164
weight of 1 is -7.510446
weight of 2 is -5.377778
weight of 3 is -8.000000
used!
weight of 0 is 7.401756
weight of 1 is -7.510432
weight of 2 is -5.377778
weight of 3 is -7.000000
used!
weight of 0 is 6.841653
weight of 1 is -10.034308
weight of 2 is -6.266667
weight of 3 is -8.000000
not used!
deny
deny
weight of 0 is 6.268062
weight of 1 is -11.156968
weight of 2 is -6.266667
weight of 3 is -9.000000
not used!
deny
deny
weight of 0 is 5.677012
weight of 1 is -12.578134
weight of 2 is -6.488889
weight of 3 is -10.000000
not used!
deny
deny
deny
deny
weight of 0 is 6.250603
weight of 1 is -12.576307
weight of 2 is -5.422222
weight of 3 is -9.000000
used!
weight of 0 is 6.824194
weight of 1 is -12.574480
weight of 2 is -4.355556
weight of 3 is -8.000000
used!
deny
deny
weight of 0 is 7.397784
weight of 1 is -12.574417
weight of 2 is -3.466667
weight of 3 is -7.000000
used!
weight of 0 is 7.971376
weight of 1 is -12.574354
weight of 2 is -2.577778
weight of 3 is -6.000000
used!
deny
deny
deny
deny
weight of 0 is 7.397784
weight of 1 is -12.574398
weight of 2 is -2.577778
weight of 3 is -7.000000
not used!
deny
deny
deny
deny
weight of 0 is 6.844954
weight of 1 is -14.261496
weight of 2 is -2.577778
weight of 3 is -8.000000
not used!
deny
deny
weight of 0 is 7.418545
weight of 1 is -14.261491
weight of 2 is -2.577778
weight of 3 is -7.000000
used!
weight of 0 is 7.992136
weight of 1 is -14.261487
weight of 2 is -2.577778
weight of 3 is -6.000000
used!
weight of 0 is 7.418545
weight of 1 is -15.896771
weight of 2 is -2.755556
weight of 3 is -7.000000
not used!
weight of 0 is 6.830989
weight of 1 is -17.033538
weight of 2 is -3.288889
weight of 3 is -8.000000
not used!
weight of 0 is 6.244897
weight of 1 is -17.036739
weight of 2 is -4.355556
weight of 3 is -9.000000
not used!
deny
deny
deny
deny
deny
deny
weight of 0 is 6.239535
weight of 1 is -19.470612
weight of 2 is -5.422222
weight of 3 is -10.000000
not used!
deny
deny
deny
deny
deny
deny
weight of 0 is 6.813126
weight of 1 is -19.470521
weight of 2 is -4.177778
weight of 3 is -9.000000
used!
weight of 0 is 7.386717
weight of 1 is -19.470429
weight of 2 is -2.933333
weight of 3 is -8.000000
used!
deny
deny
weight of 0 is 7.960308
weight of 1 is -19.470427
weight of 2 is -2.933333
weight of 3 is -7.000000
used!
weight of 0 is 8.533899
weight of 1 is -19.470424
weight of 2 is -2.933333
weight of 3 is -6.000000
used!
deny
deny
weight of 0 is 9.107489
weight of 1 is -18.446959
weight of 2 is -2.577778
weight of 3 is -5.000000
used!
weight of 0 is 9.681081
weight of 1 is -17.423494
weight of 2 is -2.222222
weight of 3 is -4.000000
used!
deny
deny
weight of 0 is 9.680376
weight of 1 is -18.597382
weight of 2 is -2.400000
weight of 3 is -5.000000
not used!
weight of 0 is 9.665250
weight of 1 is -21.298239
weight of 2 is -2.755556
weight of 3 is -6.000000
not used!
weight of 0 is 9.654673
weight of 1 is -23.390437
weight of 2 is -3.822222
weight of 3 is -7.000000
not used!
deny
deny
weight of 0 is 9.639546
weight of 1 is -25.483218
weight of 2 is -4.177778
weight of 3 is -8.000000
not used!
deny
deny
weight of 0 is 10.213137
weight of 1 is -25.467569
weight of 2 is -4.177778
weight of 3 is -7.000000
used!
weight of 0 is 10.786728
weight of 1 is -25.451919
weight of 2 is -4.177778
weight of 3 is -6.000000
used!
weight of 0 is 10.741720
weight of 1 is -30.346710
weight of 2 is -5.244444
weight of 3 is -7.000000
not used!
deny
deny
weight of 0 is 10.735494
weight of 1 is -32.084679
weight of 2 is -5.955556
weight of 3 is -8.000000
not used!
deny
deny
weight of 0 is 10.690445
weight of 1 is -35.244826
weight of 2 is -6.311111
weight of 3 is -9.000000
not used!
weight of 0 is 10.675319
weight of 1 is -40.227018
weight of 2 is -7.200000
weight of 3 is -10.000000
not used!
weight of 0 is 10.660482
weight of 1 is -42.665971
weight of 2 is -7.200000
weight of 3 is -11.000000
not used!
deny
deny
weight of 0 is 10.644715
weight of 1 is -42.741611
weight of 2 is -7.377778
weight of 3 is -12.000000
not used!
weight of 0 is 10.629589
weight of 1 is -45.256582
weight of 2 is -8.088889
weight of 3 is -13.000000
not used!
deny
deny
weight of 0 is 11.220603
weight of 1 is -44.861192
weight of 2 is -7.555556
weight of 3 is -12.000000
used!
weight of 0 is 11.811617
weight of 1 is -44.465802
weight of 2 is -7.022222
weight of 3 is -11.000000
used!
deny
deny
weight of 0 is 11.760585
weight of 1 is -49.850904
weight of 2 is -7.066667
weight of 3 is -12.000000
not used!
deny
deny
deny
deny
deny
deny
deny
deny
weight of 0 is 11.745459
weight of 1 is -55.235941
weight of 2 is -7.066667
weight of 3 is -13.000000
not used!
deny
deny
weight of 0 is 11.714434
weight of 1 is -60.604406
weight of 2 is -7.066667
weight of 3 is -14.000000
not used!
deny
deny
weight of 0 is 11.699308
weight of 1 is -64.868837
weight of 2 is -7.066667
weight of 3 is -15.000000
not used!
deny
deny
deny
deny
deny
deny
weight of 0 is 11.714434
weight of 1 is -64.639519
weight of 2 is -7.066667
weight of 3 is -14.000000
used!
weight of 0 is 11.729560
weight of 1 is -64.410202
weight of 2 is -7.066667
weight of 3 is -13.000000
used!
deny
deny
weight of 0 is 11.744686
weight of 1 is -64.410148
weight of 2 is -6.533333
weight of 3 is -12.000000
used!
weight of 0 is 11.759812
weight of 1 is -64.410094
weight of 2 is -6.000000
weight of 3 is -11.000000
used!
weight of 0 is 11.713810
weight of 1 is -65.431145
weight of 2 is -6.755556
weight of 3 is -12.000000
not used!
deny
deny
weight of 0 is 11.667808
weight of 1 is -65.431160
weight of 2 is -7.822222
weight of 3 is -13.000000
not used!
weight of 0 is 11.619511
weight of 1 is -65.618014
weight of 2 is -8.577778
weight of 3 is -14.000000
not used!
deny
deny
deny
deny
deny
deny
deny
deny
weight of 0 is 12.210525
weight of 1 is -65.617981
weight of 2 is -8.400000
weight of 3 is -13.000000
used!
weight of 0 is 12.801539
weight of 1 is -65.617948
weight of 2 is -8.222222
weight of 3 is -12.000000
used!
weight of 0 is 12.211878
weight of 1 is -66.926060
weight of 2 is -9.288889
weight of 3 is -13.000000
not used!
deny
deny
deny
deny
deny
deny
weight of 0 is 12.802829
weight of 1 is -64.092588
weight of 2 is -9.111111
weight of 3 is -12.000000
used!
weight of 0 is 13.393780
weight of 1 is -61.259116
weight of 2 is -8.933333
weight of 3 is -11.000000
used!
deny
deny
deny
deny
weight of 0 is 13.984796
weight of 1 is -61.259093
weight of 2 is -8.400000
weight of 3 is -10.000000
used!
weight of 0 is 14.575812
weight of 1 is -61.259069
weight of 2 is -7.866667
weight of 3 is -9.000000
used!
weight of 0 is 14.560686
weight of 1 is -61.259123
weight of 2 is -8.044444
weight of 3 is -10.000000
not used!
deny
deny
weight of 0 is 15.151703
weight of 1 is -58.425431
weight of 2 is -6.800000
weight of 3 is -9.000000
used!
weight of 0 is 15.742719
weight of 1 is -55.591738
weight of 2 is -5.555556
weight of 3 is -8.000000
used!
accept
accept
weight of 0 is 16.333735
weight of 1 is -50.913787
weight of 2 is -4.666667
weight of 3 is -7.000000
used!
weight of 0 is 16.924752
weight of 1 is -46.235837
weight of 2 is -3.777778
weight of 3 is -6.000000
used!
weight of 0 is 16.919802
weight of 1 is -47.064121
weight of 2 is -4.666667
weight of 3 is -7.000000
not used!
deny
deny
weight of 0 is 17.510818
weight of 1 is -47.064098
weight of 2 is -4.488889
weight of 3 is -6.000000
used!
weight of 0 is 18.101835
weight of 1 is -47.064074
weight of 2 is -4.311111
weight of 3 is -5.000000
used!
deny
deny
accept
accept
weight of 0 is 18.692853
weight of 1 is -47.064051
weight of 2 is -3.066667
weight of 3 is -4.000000
used!
weight of 0 is 19.283871
weight of 1 is -47.064027
weight of 2 is -1.822222
weight of 3 is -3.000000
used!
accept
accept
weight of 0 is 19.874888
weight of 1 is -47.063959
weight of 2 is -0.933333
weight of 3 is -2.000000
used!
weight of 0 is 20.465906
weight of 1 is -47.063891
weight of 2 is -0.044444
weight of 3 is -1.000000
used!
deny
deny
weight of 0 is 19.914292
weight of 1 is -47.631159
weight of 2 is -0.400000
weight of 3 is -2.000000
not used!
weight of 0 is 19.354190
weight of 1 is -48.289453
weight of 2 is -1.288889
weight of 3 is -3.000000
not used!
deny
deny
deny
deny
accept
accept
weight of 0 is 19.945209
weight of 1 is -45.455582
weight of 2 is -0.044444
weight of 3 is -2.000000
used!
weight of 0 is 20.536228
weight of 1 is -42.621711
weight of 2 is 1.200000
weight of 3 is -1.000000
used!
accept
accept
accept
accept
accept
accept
accept
accept
weight of 0 is 19.962637
weight of 1 is -42.621784
weight of 2 is 1.200000
weight of 3 is -2.000000
not used!
accept
accept
weight of 0 is 19.947511
weight of 1 is -44.890405
weight of 2 is 1.200000
weight of 3 is -3.000000
not used!
accept
accept
accept
accept
deny
deny
weight of 0 is 19.955044
weight of 1 is -42.056834
weight of 2 is 1.911111
weight of 3 is -2.000000
used!
weight of 0 is 19.962576
weight of 1 is -39.223264
weight of 2 is 2.622222
weight of 3 is -1.000000
used!
deny
deny
weight of 0 is 19.970108
weight of 1 is -36.389595
weight of 2 is 3.333333
weight of 3 is 0.000000
used!
weight of 0 is 19.977640
weight of 1 is -33.555926
weight of 2 is 4.044444
weight of 3 is 1.000000
used!
deny
deny
weight of 0 is 19.404049
weight of 1 is -33.555972
weight of 2 is 4.044444
weight of 3 is 0.000000
not used!
accept
accept
weight of 0 is 19.995073
weight of 1 is -30.721744
weight of 2 is 5.288889
weight of 3 is 1.000000
used!
weight of 0 is 20.586096
weight of 1 is -27.887517
weight of 2 is 6.533333
weight of 3 is 2.000000
used!
accept
accept
weight of 0 is 20.570970
weight of 1 is -30.186208
weight of 2 is 6.000000
weight of 3 is 1.000000
not used!
accept
accept
accept
accept
weight of 0 is 20.079016
weight of 1 is -32.543501
weight of 2 is 5.200000
weight of 3 is 0.000000
not used!
weight of 0 is 19.587074
weight of 1 is -32.544565
weight of 2 is 3.844444
weight of 3 is -1.000000
not used!
weight of 0 is 19.095124
weight of 1 is -32.545258
weight of 2 is 2.644444
weight of 3 is -2.000000
not used!
accept
accept
accept
accept
weight of 0 is 18.547651
weight of 1 is -37.058236
weight of 2 is 2.111111
weight of 3 is -3.000000
not used!
weight of 0 is 18.000165
weight of 1 is -37.059752
weight of 2 is 2.022222
weight of 3 is -4.000000
not used!
accept
accept
weight of 0 is 17.452647
weight of 1 is -37.062304
weight of 2 is 0.688889
weight of 3 is -5.000000
not used!
weight of 0 is 16.904936
weight of 1 is -37.077437
weight of 2 is 0.066667
weight of 3 is -6.000000
not used!
accept
accept
deny
deny
weight of 0 is 16.912469
weight of 1 is -34.243733
weight of 2 is 0.066667
weight of 3 is -5.000000
used!
weight of 0 is 16.920002
weight of 1 is -31.410029
weight of 2 is 0.066667
weight of 3 is -4.000000
used!
weight of 0 is 16.372493
weight of 1 is -31.413386
weight of 2 is -0.155556
weight of 3 is -5.000000
not used!
deny
deny
weight of 0 is 16.380025
weight of 1 is -31.413311
weight of 2 is -0.155556
weight of 3 is -4.000000
used!
weight of 0 is 16.387557
weight of 1 is -31.413236
weight of 2 is -0.155556
weight of 3 is -3.000000
used!
deny
deny
weight of 0 is 15.839738
weight of 1 is -31.418741
weight of 2 is -0.422222
weight of 3 is -4.000000
not used!
accept
accept
accept
accept
weight of 0 is 16.430766
weight of 1 is -28.584133
weight of 2 is -0.244444
weight of 3 is -3.000000
used!
weight of 0 is 17.021795
weight of 1 is -25.749525
weight of 2 is -0.066667
weight of 3 is -2.000000
used!
accept
accept
accept
accept
weight of 0 is 16.448204
weight of 1 is -25.749567
weight of 2 is -0.066667
weight of 3 is -3.000000
not used!
accept
accept
accept
accept
accept
accept
accept
accept
weight of 0 is 15.956246
weight of 1 is -30.404471
weight of 2 is -0.155556
weight of 3 is -4.000000
not used!
weight of 0 is 15.464288
weight of 1 is -30.404475
weight of 2 is -1.400000
weight of 3 is -5.000000
not used!
weight of 0 is 14.972344
weight of 1 is -30.405549
weight of 2 is -2.400000
weight of 3 is -6.000000
not used!
deny
deny
weight of 0 is 14.480394
weight of 1 is -30.406022
weight of 2 is -3.688889
weight of 3 is -7.000000
not used!
deny
deny
weight of 0 is 13.988374
weight of 1 is -30.406202
weight of 2 is -4.222222
weight of 3 is -8.000000
not used!
deny
deny
deny
deny
weight of 0 is 13.452306
weight of 1 is -33.990977
weight of 2 is -4.222222
weight of 3 is -9.000000
not used!
deny
deny
weight of 0 is 14.043339
weight of 1 is -33.990930
weight of 2 is -3.688889
weight of 3 is -8.000000
used!
weight of 0 is 14.634373
weight of 1 is -33.990883
weight of 2 is -3.155556
weight of 3 is -7.000000
used!
weight of 0 is 14.086901
weight of 1 is -34.919174
weight of 2 is -4.044444
weight of 3 is -8.000000
not used!
deny
deny
weight of 0 is 13.539420
weight of 1 is -34.920255
weight of 2 is -4.311111
weight of 3 is -9.000000
not used!
deny
deny
weight of 0 is 12.991917
weight of 1 is -34.922146
weight of 2 is -5.466667
weight of 3 is -10.000000
not used!
deny
deny
deny
deny
weight of 0 is 12.444291
weight of 1 is -34.931464
weight of 2 is -6.622222
weight of 3 is -11.000000
not used!
deny
deny
weight of 0 is 11.896756
weight of 1 is -34.944011
weight of 2 is -7.511111
weight of 3 is -12.000000
not used!
deny
deny
weight of 0 is 11.348944
weight of 1 is -34.946727
weight of 2 is -7.822222
weight of 3 is -13.000000
not used!
deny
deny
deny
deny
weight of 0 is 11.357403
weight of 1 is -34.945516
weight of 2 is -7.111111
weight of 3 is -12.000000
used!
weight of 0 is 11.365863
weight of 1 is -34.944304
weight of 2 is -6.400000
weight of 3 is -11.000000
used!
deny
deny
weight of 0 is 11.374384
weight of 1 is -32.173896
weight of 2 is -6.400000
weight of 3 is -10.000000
used!
weight of 0 is 11.382904
weight of 1 is -29.403489
weight of 2 is -6.400000
weight of 3 is -9.000000
used!
deny
deny
weight of 0 is 11.391349
weight of 1 is -29.397364
weight of 2 is -6.400000
weight of 3 is -8.000000
used!
weight of 0 is 11.399795
weight of 1 is -29.391239
weight of 2 is -6.400000
weight of 3 is -7.000000
used!
deny
deny
weight of 0 is 11.408254
weight of 1 is -27.471405
weight of 2 is -6.400000
weight of 3 is -6.000000
used!
weight of 0 is 11.416715
weight of 1 is -25.551570
weight of 2 is -6.400000
weight of 3 is -5.000000
used!
weight of 0 is 10.843124
weight of 1 is -25.551690
weight of 2 is -6.933333
weight of 3 is -6.000000
not used!
deny
deny
weight of 0 is 10.851644
weight of 1 is -25.546768
weight of 2 is -6.933333
weight of 3 is -5.000000
used!
weight of 0 is 10.860165
weight of 1 is -25.541845
weight of 2 is -6.933333
weight of 3 is -4.000000
used!
weight of 0 is 10.286574
weight of 1 is -25.558625
weight of 2 is -7.644444
weight of 3 is -5.000000
not used!
deny
deny
weight of 0 is 10.295019
weight of 1 is -25.552500
weight of 2 is -7.644444
weight of 3 is -4.000000
used!
weight of 0 is 10.303464
weight of 1 is -25.546375
weight of 2 is -7.644444
weight of 3 is -3.000000
used!
deny
deny
weight of 0 is 10.311925
weight of 1 is -25.545154
weight of 2 is -7.644444
weight of 3 is -2.000000
used!
weight of 0 is 10.320385
weight of 1 is -25.543933
weight of 2 is -7.644444
weight of 3 is -1.000000
used!
deny
deny
weight of 0 is 10.328906
weight of 1 is -25.539011
weight of 2 is -7.644444
weight of 3 is 0.000000
used!
weight of 0 is 10.337427
weight of 1 is -25.534088
weight of 2 is -7.644444
weight of 3 is 1.000000
used!
accept
accept
weight of 0 is 10.345872
weight of 1 is -25.527964
weight of 2 is -7.644444
weight of 3 is 2.000000
used!
weight of 0 is 10.354318
weight of 1 is -25.521839
weight of 2 is -7.644444
weight of 3 is 3.000000
used!
weight of 0 is 9.768088
weight of 1 is -26.550652
weight of 2 is -8.533333
weight of 3 is 2.000000
not used!
accept
accept
weight of 0 is 9.776548
weight of 1 is -26.549431
weight of 2 is -8.533333
weight of 3 is 3.000000
used!
weight of 0 is 9.785009
weight of 1 is -26.548209
weight of 2 is -8.533333
weight of 3 is 4.000000
used!
accept
accept
weight of 0 is 9.793530
weight of 1 is -26.543287
weight of 2 is -8.533333
weight of 3 is 5.000000
used!
weight of 0 is 9.802051
weight of 1 is -26.538365
weight of 2 is -8.533333
weight of 3 is 6.000000
used!
accept
accept
weight of 0 is 9.228460
weight of 1 is -26.538447
weight of 2 is -8.711111
weight of 3 is 5.000000
not used!
accept
accept
accept
accept
accept
accept
accept
accept
deny
deny
deny
deny
deny
deny
deny
deny
deny
deny
deny
deny
deny
deny
deny
deny
deny
deny
deny
deny
deny
deny
deny
deny
weight of 0 is 9.243586
weight of 1 is -25.608463
weight of 2 is -8.000000
weight of 3 is 6.000000
used!
weight of 0 is 9.258712
weight of 1 is -24.678478
weight of 2 is -7.288889
weight of 3 is 7.000000
used!
deny
deny
deny
deny
weight of 0 is 9.273838
weight of 1 is -21.667957
weight of 2 is -6.222222
weight of 3 is 8.000000
used!
weight of 0 is 9.288964
weight of 1 is -18.657437
weight of 2 is -5.155556
weight of 3 is 9.000000
used!
deny
deny
deny
deny
accept
accept
deny
deny
deny
deny
deny
deny
deny
deny
deny
deny
accept
accept
deny
deny
deny
deny
accept
accept
deny
deny
accept
accept
accept
accept
deny
deny
accept
accept
deny
deny
deny
deny
accept
accept
accept
accept
accept
accept
accept
accept
accept
accept
accept
accept
accept
accept
accept
accept
accept
accept
accept
accept
accept
accept
accept
accept
accept
accept
accept
accept
accept
accept
accept
accept
accept
accept
deny
deny
accept
accept
deny
deny
accept
accept
deny
deny
accept
accept
deny
deny
deny
deny
weight of 0 is 8.697948
weight of 1 is -18.657458
weight of 2 is -5.155556
weight of 3 is 8.000000
not used!
deny
deny
accept
accept
weight of 0 is 9.233324
weight of 1 is -16.497916
weight of 2 is -5.155556
weight of 3 is 9.000000
used!
weight of 0 is 9.768700
weight of 1 is -14.338375
weight of 2 is -5.155556
weight of 3 is 10.000000
used!
accept
accept
accept
accept
accept
accept
weight of 0 is 9.177683
weight of 1 is -14.338396
weight of 2 is -5.155556
weight of 3 is 9.000000
not used!
accept
accept
deny
deny
accept
accept
accept
accept
weight of 0 is 8.586665
weight of 1 is -14.338417
weight of 2 is -5.155556
weight of 3 is 8.000000
not used!
deny
deny
accept
accept
weight of 0 is 9.160256
weight of 1 is -13.346808
weight of 2 is -5.155556
weight of 3 is 9.000000
used!
weight of 0 is 9.733847
weight of 1 is -12.355199
weight of 2 is -5.155556
weight of 3 is 10.000000
used!
deny
deny
accept
accept
weight of 0 is 9.142825
weight of 1 is -12.355269
weight of 2 is -5.333333
weight of 3 is 9.000000
not used!
weight of 0 is 8.551805
weight of 1 is -12.355290
weight of 2 is -5.333333
weight of 3 is 8.000000
not used!
deny
deny
accept
accept
accept
accept
accept
accept
weight of 0 is 7.960782
weight of 1 is -12.355311
weight of 2 is -5.333333
weight of 3 is 7.000000
not used!
accept
accept
accept
accept
accept
accept
weight of 0 is 7.369757
weight of 1 is -12.355333
weight of 2 is -5.333333
weight of 3 is 6.000000
not used!
deny
deny
deny
deny
accept
accept
accept
accept
weight of 0 is 6.778729
weight of 1 is -12.355354
weight of 2 is -5.333333
weight of 3 is 5.000000
not used!
deny
deny
deny
deny
deny
deny
deny
deny
accept
accept
deny
deny
accept
accept
accept
accept
weight of 0 is 6.187698
weight of 1 is -12.355375
weight of 2 is -5.333333
weight of 3 is 4.000000
not used!
accept
accept
accept
accept
deny
deny
accept
accept
accept
accept
Switching CPUS @ tick 41267300000
Simulation ends instruction count:100000000
switching cpus
info: Entering event queue @ 41267300000.  Starting simulation...
**** REAL SIMULATION ****
info: Entering event queue @ 41276622750.  Starting simulation...
Exiting @ tick 18446744073709551615 because simulate() limit reached
