Running SPEC test: mcf

/home/victorfu/cpu2017/benchspec/CPU/505.mcf_r
/home/victorfu/finalproject/gem5/build/X86/gem6.opt --outdir="/home/victorfu/output/bench_spec/fastforward-p3/mcf" /home/victorfu/finalproject/gem5/configs/example/se.py --cmd=mcf_r_base.victor_jun10-m64 --standard-switch=0 --warmup-insts=73000000 --caches  --l2cache --l1i_size=16kB  --l1d_size=64kB --l2_size=256kB --cpu-type=DerivO3CPU  --mem-type=DDR3_1600_8x8  --cpu-clock=1GHz --maxinsts=100000000 --options='inp.in' --l2-hwp-type=TaggedPrefetcher --mlu_pf_type=perceptron

gem5 Simulator System.  http://gem5.org
gem5 is copyrighted software; use the --copyright option for details.

gem5 compiled Jun 14 2019 14:23:51
gem5 started Jun 14 2019 15:51:57
gem5 executing on tetracosa.cs.ucla.edu, pid 346948
command line: /home/victorfu/finalproject/gem5/build/X86/gem6.opt --outdir=/home/victorfu/output/bench_spec/fastforward-p3/mcf /home/victorfu/finalproject/gem5/configs/example/se.py --cmd=mcf_r_base.victor_jun10-m64 --standard-switch=0 --warmup-insts=73000000 --caches --l2cache --l1i_size=16kB --l1d_size=64kB --l2_size=256kB --cpu-type=DerivO3CPU --mem-type=DDR3_1600_8x8 --cpu-clock=1GHz --maxinsts=100000000 --options=inp.in --l2-hwp-type=TaggedPrefetcher --mlu_pf_type=perceptron

info: Standard input is not a terminal, disabling listeners.
Warning: l2-hwp-type is set ( TaggedPrefetcher ), but the current l2 has a default Hardware Prefetcher of type <class 'm5.params.NullSimObject'> , using the specified by the flag option.
MLU-Prefetch Perceptron Enabled.
Global frequency set at 1000000000000 ticks per second
warn: DRAM device capacity (8192 Mbytes) does not match the address range assigned (512 Mbytes)
warn: Sockets disabled, not accepting gdb connections
**** REAL SIMULATION ****
info: Entering event queue @ 0.  Starting simulation...
accept
accept
accept
accept
accept
accept
accept
accept
accept
accept
accept
accept
accept
accept
accept
accept
accept
accept
accept
accept
accept
accept
accept
accept
accept
accept
accept
accept
accept
accept
accept
accept
accept
accept
accept
accept
accept
accept
accept
accept
accept
accept
accept
accept
accept
accept
accept
accept
accept
accept
accept
accept
accept
accept
accept
accept
accept
accept
accept
accept
accept
accept
accept
accept
accept
accept
accept
accept
accept
accept
accept
accept
accept
accept
accept
accept
accept
accept
accept
accept
accept
accept
accept
accept
accept
accept
accept
accept
accept
accept
accept
accept
accept
accept
accept
accept
accept
accept
accept
accept
accept
accept
accept
accept
accept
accept
accept
accept
accept
accept
accept
accept
accept
accept
accept
accept
accept
accept
accept
accept
accept
accept
accept
accept
info: Increasing stack size by one page.
accept
accept
accept
accept
accept
accept
accept
accept
accept
accept
accept
accept
accept
accept
accept
accept
accept
accept
accept
accept
accept
accept
accept
accept
accept
accept
accept
accept
accept
accept
accept
accept
accept
accept
accept
accept
accept
accept
accept
accept
accept
accept
accept
accept
accept
accept
accept
accept
accept
accept
accept
accept
accept
accept
accept
accept
accept
accept
accept
accept
accept
accept
accept
accept
accept
accept
accept
accept
accept
accept
accept
accept
accept
accept
accept
accept
accept
accept
accept
accept
accept
accept
accept
accept
accept
accept
accept
accept
accept
accept
accept
accept
accept
accept
accept
accept
accept
accept
accept
accept
accept
accept
accept
accept
accept
accept
accept
accept
accept
accept
accept
accept
accept
accept
accept
accept
accept
accept
accept
accept
accept
accept
accept
accept
accept
accept
accept
accept
accept
accept
accept
accept
accept
accept
accept
accept
accept
accept
accept
accept
accept
accept
accept
accept
accept
accept
accept
accept
weight of 0 is -0.492796
weight of 1 is -0.003506
weight of 2 is -0.355556
weight of 3 is -1.000000
not used!
deny
deny
weight of 0 is -0.985601
weight of 1 is -0.004544
weight of 2 is -1.244444
weight of 3 is -2.000000
not used!
deny
deny
weight of 0 is -1.478405
weight of 1 is -0.004565
weight of 2 is -2.311111
weight of 3 is -3.000000
not used!
deny
deny
deny
deny
weight of 0 is -0.986104
weight of 1 is -0.003833
weight of 2 is -2.311111
weight of 3 is -2.000000
used!
weight of 0 is -0.493802
weight of 1 is -0.003100
weight of 2 is -2.311111
weight of 3 is -1.000000
used!
deny
deny
deny
deny
deny
deny
weight of 0 is -0.001501
weight of 1 is -0.003081
weight of 2 is -2.311111
weight of 3 is 0.000000
used!
weight of 0 is 0.490801
weight of 1 is -0.003062
weight of 2 is -2.311111
weight of 3 is 1.000000
used!
weight of 0 is -0.002003
weight of 1 is -0.003177
weight of 2 is -2.666667
weight of 3 is 0.000000
not used!
accept
accept
weight of 0 is -0.494808
weight of 1 is -0.003206
weight of 2 is -3.733333
weight of 3 is -1.000000
not used!
deny
deny
weight of 0 is -0.002506
weight of 1 is 0.037457
weight of 2 is -3.733333
weight of 3 is 0.000000
used!
weight of 0 is 0.489795
weight of 1 is 0.078120
weight of 2 is -3.733333
weight of 3 is 1.000000
used!
accept
accept
weight of 0 is 0.982097
weight of 1 is 0.118886
weight of 2 is -3.733333
weight of 3 is 2.000000
used!
weight of 0 is 1.474398
weight of 1 is 0.159652
weight of 2 is -3.733333
weight of 3 is 3.000000
used!
accept
accept
weight of 0 is 0.981593
weight of 1 is 0.118630
weight of 2 is -4.444444
weight of 3 is 2.000000
not used!
accept
accept
accept
accept
weight of 0 is 0.488787
weight of 1 is 0.118602
weight of 2 is -4.444444
weight of 3 is 1.000000
not used!
weight of 0 is -0.004007
weight of 1 is 0.117700
weight of 2 is -4.444444
weight of 3 is 0.000000
not used!
accept
accept
weight of 0 is -0.496309
weight of 1 is 0.077664
weight of 2 is -4.444444
weight of 3 is -1.000000
not used!
deny
deny
deny
deny
deny
deny
weight of 0 is -0.988594
weight of 1 is 0.076349
weight of 2 is -4.444444
weight of 3 is -2.000000
not used!
deny
deny
weight of 0 is -1.480879
weight of 1 is 0.076344
weight of 2 is -5.511111
weight of 3 is -3.000000
not used!
deny
deny
weight of 0 is -1.973165
weight of 1 is 0.076297
weight of 2 is -5.688889
weight of 3 is -4.000000
not used!
deny
deny
weight of 0 is -2.465957
weight of 1 is 0.035109
weight of 2 is -6.400000
weight of 3 is -5.000000
not used!
deny
deny
deny
deny
weight of 0 is -2.958647
weight of 1 is 0.026871
weight of 2 is -6.400000
weight of 3 is -6.000000
not used!
deny
deny
weight of 0 is -3.450929
weight of 1 is -0.006307
weight of 2 is -6.488889
weight of 3 is -7.000000
not used!
deny
deny
weight of 0 is -2.958628
weight of 1 is -0.000764
weight of 2 is -6.488889
weight of 3 is -6.000000
used!
weight of 0 is -2.466326
weight of 1 is 0.004778
weight of 2 is -6.488889
weight of 3 is -5.000000
used!
deny
deny
deny
deny
weight of 0 is -2.959132
weight of 1 is -0.036261
weight of 2 is -7.022222
weight of 3 is -6.000000
not used!
deny
deny
weight of 0 is -2.466601
weight of 1 is -0.036194
weight of 2 is -6.400000
weight of 3 is -5.000000
used!
weight of 0 is -1.974070
weight of 1 is -0.036127
weight of 2 is -5.777778
weight of 3 is -4.000000
used!
deny
deny
weight of 0 is -1.481769
weight of 1 is -0.028499
weight of 2 is -5.777778
weight of 3 is -3.000000
used!
weight of 0 is -0.989468
weight of 1 is -0.020871
weight of 2 is -5.777778
weight of 3 is -2.000000
used!
weight of 0 is -1.481749
weight of 1 is -0.063656
weight of 2 is -5.866667
weight of 3 is -3.000000
not used!
deny
deny
weight of 0 is -0.989447
weight of 1 is -0.063637
weight of 2 is -5.866667
weight of 3 is -2.000000
used!
weight of 0 is -0.497146
weight of 1 is -0.063618
weight of 2 is -5.866667
weight of 3 is -1.000000
used!
weight of 0 is -0.989427
weight of 1 is -0.063647
weight of 2 is -6.666667
weight of 3 is -2.000000
not used!
deny
deny
weight of 0 is -0.497125
weight of 1 is -0.033084
weight of 2 is -6.666667
weight of 3 is -1.000000
used!
weight of 0 is -0.004824
weight of 1 is -0.002522
weight of 2 is -6.666667
weight of 3 is 0.000000
used!
weight of 0 is -0.497106
weight of 1 is -0.002642
weight of 2 is -8.000000
weight of 3 is -1.000000
not used!
deny
deny
weight of 0 is -0.004804
weight of 1 is -0.002623
weight of 2 is -8.000000
weight of 3 is 0.000000
used!
weight of 0 is 0.487497
weight of 1 is -0.002604
weight of 2 is -8.000000
weight of 3 is 1.000000
used!
weight of 0 is -0.004785
weight of 1 is -0.002606
weight of 2 is -8.000000
weight of 3 is 0.000000
not used!
weight of 0 is -0.497086
weight of 1 is -0.004240
weight of 2 is -8.000000
weight of 3 is -1.000000
not used!
deny
deny
deny
deny
weight of 0 is -0.004785
weight of 1 is -0.004202
weight of 2 is -8.000000
weight of 3 is 0.000000
used!
weight of 0 is 0.487516
weight of 1 is -0.004165
weight of 2 is -8.000000
weight of 3 is 1.000000
used!
deny
deny
accept
accept
weight of 0 is 0.979818
weight of 1 is -0.004146
weight of 2 is -8.000000
weight of 3 is 2.000000
used!
weight of 0 is 1.472119
weight of 1 is -0.004127
weight of 2 is -8.000000
weight of 3 is 3.000000
used!
weight of 0 is 0.979818
weight of 1 is -0.016546
weight of 2 is -8.000000
weight of 3 is 2.000000
not used!
weight of 0 is 0.486982
weight of 1 is -0.048881
weight of 2 is -8.177778
weight of 3 is 1.000000
not used!
accept
accept
weight of 0 is -0.005159
weight of 1 is -0.094203
weight of 2 is -9.244444
weight of 3 is 0.000000
not used!
weight of 0 is -0.497964
weight of 1 is -0.137050
weight of 2 is -9.777778
weight of 3 is -1.000000
not used!
weight of 0 is -0.990766
weight of 1 is -0.151189
weight of 2 is -10.666667
weight of 3 is -2.000000
not used!
deny
deny
weight of 0 is -1.483274
weight of 1 is -0.153918
weight of 2 is -11.911111
weight of 3 is -3.000000
not used!
deny
deny
deny
deny
deny
deny
weight of 0 is -0.990973
weight of 1 is -0.139546
weight of 2 is -11.911111
weight of 3 is -2.000000
used!
weight of 0 is -0.498672
weight of 1 is -0.125174
weight of 2 is -11.911111
weight of 3 is -1.000000
used!
weight of 0 is -0.991180
weight of 1 is -0.141967
weight of 2 is -13.155556
weight of 3 is -2.000000
not used!
deny
deny
deny
deny
weight of 0 is -1.483550
weight of 1 is -0.153122
weight of 2 is -13.333333
weight of 3 is -3.000000
not used!
deny
deny
weight of 0 is -1.975920
weight of 1 is -0.153142
weight of 2 is -13.422222
weight of 3 is -4.000000
not used!
deny
deny
weight of 0 is -1.483619
weight of 1 is -0.153123
weight of 2 is -13.422222
weight of 3 is -3.000000
used!
weight of 0 is -0.991317
weight of 1 is -0.153105
weight of 2 is -13.422222
weight of 3 is -2.000000
used!
weight of 0 is -1.483687
weight of 1 is -0.162145
weight of 2 is -14.044444
weight of 3 is -3.000000
not used!
deny
deny
weight of 0 is -0.991386
weight of 1 is -0.162126
weight of 2 is -14.044444
weight of 3 is -2.000000
used!
weight of 0 is -0.499084
weight of 1 is -0.162107
weight of 2 is -14.044444
weight of 3 is -1.000000
used!
deny
deny
weight of 0 is -0.991386
weight of 1 is -0.178884
weight of 2 is -14.044444
weight of 3 is -2.000000
not used!
deny
deny
deny
deny
weight of 0 is -0.499084
weight of 1 is -0.157899
weight of 2 is -14.044444
weight of 3 is -1.000000
used!
weight of 0 is -0.006783
weight of 1 is -0.136913
weight of 2 is -14.044444
weight of 3 is 0.000000
used!
weight of 0 is -0.499084
weight of 1 is -0.136951
weight of 2 is -14.044444
weight of 3 is -1.000000
not used!
deny
deny
weight of 0 is -0.006783
weight of 1 is -0.128948
weight of 2 is -14.044444
weight of 3 is 0.000000
used!
weight of 0 is 0.485519
weight of 1 is -0.120944
weight of 2 is -14.044444
weight of 3 is 1.000000
used!
deny
deny
accept
accept
weight of 0 is -0.006990
weight of 1 is -0.137742
weight of 2 is -14.222222
weight of 3 is 0.000000
not used!
weight of 0 is -0.499460
weight of 1 is -0.140063
weight of 2 is -15.111111
weight of 3 is -1.000000
not used!
deny
deny
weight of 0 is -0.007159
weight of 1 is -0.140044
weight of 2 is -15.111111
weight of 3 is 0.000000
used!
weight of 0 is 0.485143
weight of 1 is -0.140025
weight of 2 is -15.111111
weight of 3 is 1.000000
used!
accept
accept
weight of 0 is -0.007369
weight of 1 is -0.157157
weight of 2 is -16.355556
weight of 3 is 0.000000
not used!
accept
accept
weight of 0 is 0.484932
weight of 1 is -0.136153
weight of 2 is -16.355556
weight of 3 is 1.000000
used!
weight of 0 is 0.977234
weight of 1 is -0.115148
weight of 2 is -16.355556
weight of 3 is 2.000000
used!
deny
deny
weight of 0 is 0.484932
weight of 1 is -0.132224
weight of 2 is -16.355556
weight of 3 is 1.000000
not used!
weight of 0 is -0.007534
weight of 1 is -0.145638
weight of 2 is -16.355556
weight of 3 is 0.000000
not used!
accept
accept
weight of 0 is -0.499836
weight of 1 is -0.158996
weight of 2 is -16.355556
weight of 3 is -1.000000
not used!
deny
deny
deny
deny
deny
deny
weight of 0 is -0.992697
weight of 1 is -0.204571
weight of 2 is -17.600000
weight of 3 is -2.000000
not used!
weight of 0 is -1.484999
weight of 1 is -0.250090
weight of 2 is -17.600000
weight of 3 is -3.000000
not used!
deny
deny
weight of 0 is -1.977859
weight of 1 is -0.295570
weight of 2 is -18.666667
weight of 3 is -4.000000
not used!
deny
deny
weight of 0 is -2.470719
weight of 1 is -0.295574
weight of 2 is -18.666667
weight of 3 is -5.000000
not used!
deny
deny
weight of 0 is -1.978418
weight of 1 is -0.286068
weight of 2 is -18.666667
weight of 3 is -4.000000
used!
weight of 0 is -1.486116
weight of 1 is -0.276562
weight of 2 is -18.666667
weight of 3 is -3.000000
used!
weight of 0 is -1.978418
weight of 1 is -0.296683
weight of 2 is -18.666667
weight of 3 is -4.000000
not used!
deny
deny
weight of 0 is -2.470720
weight of 1 is -0.337517
weight of 2 is -18.666667
weight of 3 is -5.000000
not used!
deny
deny
weight of 0 is -2.963021
weight of 1 is -0.364251
weight of 2 is -18.666667
weight of 3 is -6.000000
not used!
deny
deny
weight of 0 is -3.455824
weight of 1 is -0.378323
weight of 2 is -18.666667
weight of 3 is -7.000000
not used!
deny
deny
deny
deny
weight of 0 is -2.963523
weight of 1 is -0.362917
weight of 2 is -18.666667
weight of 3 is -6.000000
used!
weight of 0 is -2.471221
weight of 1 is -0.347512
weight of 2 is -18.666667
weight of 3 is -5.000000
used!
deny
deny
weight of 0 is -2.964081
weight of 1 is -0.392853
weight of 2 is -19.200000
weight of 3 is -6.000000
not used!
deny
deny
weight of 0 is -2.471780
weight of 1 is -0.388867
weight of 2 is -19.200000
weight of 3 is -5.000000
used!
weight of 0 is -1.979478
weight of 1 is -0.384882
weight of 2 is -19.200000
weight of 3 is -4.000000
used!
deny
deny
weight of 0 is -1.487177
weight of 1 is -0.367222
weight of 2 is -19.200000
weight of 3 is -3.000000
used!
weight of 0 is -0.994875
weight of 1 is -0.349562
weight of 2 is -19.200000
weight of 3 is -2.000000
used!
deny
deny
deny
deny
weight of 0 is -0.502574
weight of 1 is -0.331883
weight of 2 is -19.200000
weight of 3 is -1.000000
used!
weight of 0 is -0.010273
weight of 1 is -0.314204
weight of 2 is -19.200000
weight of 3 is 0.000000
used!
accept
accept
weight of 0 is 0.482029
weight of 1 is -0.310301
weight of 2 is -19.200000
weight of 3 is 1.000000
used!
weight of 0 is 0.974331
weight of 1 is -0.306398
weight of 2 is -19.200000
weight of 3 is 2.000000
used!
weight of 0 is 0.481605
weight of 1 is -0.340946
weight of 2 is -20.444444
weight of 3 is 1.000000
not used!
accept
accept
weight of 0 is -0.010742
weight of 1 is -0.354002
weight of 2 is -21.733333
weight of 3 is 0.000000
not used!
weight of 0 is -0.503043
weight of 1 is -0.357645
weight of 2 is -21.733333
weight of 3 is -1.000000
not used!
deny
deny
weight of 0 is -0.995769
weight of 1 is -0.374326
weight of 2 is -22.977778
weight of 3 is -2.000000
not used!
warn: ignoring syscall access(...)
deny
deny
weight of 0 is -1.488070
weight of 1 is -0.390988
weight of 2 is -22.977778
weight of 3 is -3.000000
not used!
deny
deny
deny
deny
weight of 0 is -0.995769
weight of 1 is -0.365174
weight of 2 is -22.977778
weight of 3 is -2.000000
used!
weight of 0 is -0.503467
weight of 1 is -0.339361
weight of 2 is -22.977778
weight of 3 is -1.000000
used!
deny
deny
weight of 0 is -0.995769
weight of 1 is -0.355311
weight of 2 is -22.977778
weight of 3 is -2.000000
not used!
deny
deny
deny
deny
weight of 0 is -1.488070
weight of 1 is -0.383755
weight of 2 is -22.977778
weight of 3 is -3.000000
not used!
deny
deny
weight of 0 is -0.995769
weight of 1 is -0.383736
weight of 2 is -22.977778
weight of 3 is -2.000000
used!
weight of 0 is -0.503467
weight of 1 is -0.383717
weight of 2 is -22.977778
weight of 3 is -1.000000
used!
deny
deny
deny
deny
weight of 0 is -0.995769
weight of 1 is -0.383774
weight of 2 is -22.977778
weight of 3 is -2.000000
not used!
deny
deny
deny
deny
weight of 0 is -0.503467
weight of 1 is -0.372238
weight of 2 is -22.977778
weight of 3 is -1.000000
used!
weight of 0 is -0.011166
weight of 1 is -0.360703
weight of 2 is -22.977778
weight of 3 is 0.000000
used!
accept
accept
weight of 0 is 0.481136
weight of 1 is -0.360684
weight of 2 is -22.977778
weight of 3 is 1.000000
used!
weight of 0 is 0.973438
weight of 1 is -0.360665
weight of 2 is -22.977778
weight of 3 is 2.000000
used!
accept
accept
accept
accept
accept
accept
weight of 0 is 0.480783
weight of 1 is -0.362252
weight of 2 is -22.977778
weight of 3 is 1.000000
not used!
weight of 0 is -0.011518
weight of 1 is -0.390902
weight of 2 is -22.977778
weight of 3 is 0.000000
not used!
accept
accept
weight of 0 is -0.503819
weight of 1 is -0.390921
weight of 2 is -22.977778
weight of 3 is -1.000000
not used!
deny
deny
weight of 0 is -0.996121
weight of 1 is -0.421415
weight of 2 is -22.977778
weight of 3 is -2.000000
not used!
deny
deny
deny
deny
weight of 0 is -1.488796
weight of 1 is -0.451966
weight of 2 is -23.155556
weight of 3 is -3.000000
not used!
deny
deny
weight of 0 is -1.981607
weight of 1 is -0.452967
weight of 2 is -24.311111
weight of 3 is -4.000000
not used!
weight of 0 is -2.474280
weight of 1 is -0.453837
weight of 2 is -24.488889
weight of 3 is -5.000000
not used!
deny
deny
deny
deny
weight of 0 is -1.981979
weight of 1 is -0.437006
weight of 2 is -24.488889
weight of 3 is -4.000000
used!
weight of 0 is -1.489677
weight of 1 is -0.420175
weight of 2 is -24.488889
weight of 3 is -3.000000
used!
weight of 0 is -1.982481
weight of 1 is -0.461033
weight of 2 is -25.555556
weight of 3 is -4.000000
not used!
deny
deny
deny
deny
weight of 0 is -1.490180
weight of 1 is -0.461014
weight of 2 is -25.555556
weight of 3 is -3.000000
used!
weight of 0 is -0.997878
weight of 1 is -0.460995
weight of 2 is -25.555556
weight of 3 is -2.000000
used!
deny
deny
weight of 0 is -0.505577
weight of 1 is -0.460976
weight of 2 is -25.555556
weight of 3 is -1.000000
used!
weight of 0 is -0.013275
weight of 1 is -0.460958
weight of 2 is -25.555556
weight of 3 is 0.000000
used!
accept
accept
weight of 0 is 0.479026
weight of 1 is -0.418360
weight of 2 is -25.555556
weight of 3 is 1.000000
used!
weight of 0 is 0.971328
weight of 1 is -0.375763
weight of 2 is -25.555556
weight of 3 is 2.000000
used!
accept
accept
accept
accept
weight of 0 is 0.479215
weight of 1 is -0.391039
weight of 2 is -26.800000
weight of 3 is 1.000000
not used!
deny
deny
weight of 0 is -0.013087
weight of 1 is -0.406297
weight of 2 is -26.800000
weight of 3 is 0.000000
not used!
weight of 0 is -0.505208
weight of 1 is -0.421636
weight of 2 is -27.511111
weight of 3 is -1.000000
not used!
deny
deny
weight of 0 is -0.997321
weight of 1 is -0.421648
weight of 2 is -27.688889
weight of 3 is -2.000000
not used!
weight of 0 is -1.489434
weight of 1 is -0.421665
weight of 2 is -27.688889
weight of 3 is -3.000000
not used!
deny
deny
deny
deny
deny
deny
weight of 0 is -1.981736
weight of 1 is -0.449846
weight of 2 is -27.688889
weight of 3 is -4.000000
not used!
deny
deny
weight of 0 is -2.473663
weight of 1 is -0.480296
weight of 2 is -27.955556
weight of 3 is -5.000000
not used!
deny
deny
deny
deny
deny
deny
weight of 0 is -1.981361
weight of 1 is -0.474923
weight of 2 is -27.955556
weight of 3 is -4.000000
used!
weight of 0 is -1.489060
weight of 1 is -0.469550
weight of 2 is -27.955556
weight of 3 is -3.000000
used!
deny
deny
deny
deny
deny
deny
deny
deny
weight of 0 is -1.981310
weight of 1 is -0.473737
weight of 2 is -28.133333
weight of 3 is -4.000000
not used!
deny
deny
deny
deny
weight of 0 is -1.489009
weight of 1 is -0.446303
weight of 2 is -28.133333
weight of 3 is -3.000000
used!
weight of 0 is -0.996707
weight of 1 is -0.418869
weight of 2 is -28.133333
weight of 3 is -2.000000
used!
deny
deny
deny
deny
weight of 0 is -1.489009
weight of 1 is -0.423958
weight of 2 is -28.133333
weight of 3 is -3.000000
not used!
deny
deny
weight of 0 is -0.996708
weight of 1 is -0.414376
weight of 2 is -28.133333
weight of 3 is -2.000000
used!
weight of 0 is -0.504406
weight of 1 is -0.404795
weight of 2 is -28.133333
weight of 3 is -1.000000
used!
deny
deny
deny
deny
weight of 0 is -0.996657
weight of 1 is -0.409827
weight of 2 is -28.311111
weight of 3 is -2.000000
not used!
deny
deny
weight of 0 is -0.504356
weight of 1 is -0.409809
weight of 2 is -28.311111
weight of 3 is -1.000000
used!
weight of 0 is -0.012054
weight of 1 is -0.409790
weight of 2 is -28.311111
weight of 3 is 0.000000
used!
accept
accept
weight of 0 is -0.504855
weight of 1 is -0.454527
weight of 2 is -28.844444
weight of 3 is -1.000000
not used!
deny
deny
weight of 0 is -0.012554
weight of 1 is -0.416842
weight of 2 is -28.844444
weight of 3 is 0.000000
used!
weight of 0 is 0.479748
weight of 1 is -0.379157
weight of 2 is -28.844444
weight of 3 is 1.000000
used!
accept
accept
accept
accept
weight of 0 is 0.972049
weight of 1 is -0.379138
weight of 2 is -28.844444
weight of 3 is 2.000000
used!
weight of 0 is 1.464351
weight of 1 is -0.379120
weight of 2 is -28.844444
weight of 3 is 3.000000
used!
accept
accept
weight of 0 is 0.971672
weight of 1 is -0.420182
weight of 2 is -29.733333
weight of 3 is 2.000000
not used!
accept
accept
weight of 0 is 0.479224
weight of 1 is -0.420291
weight of 2 is -30.622222
weight of 3 is 1.000000
not used!
weight of 0 is -0.013078
weight of 1 is -0.450907
weight of 2 is -30.622222
weight of 3 is 0.000000
not used!
weight of 0 is -0.505759
weight of 1 is -0.481843
weight of 2 is -31.533333
weight of 3 is -1.000000
not used!
deny
deny
weight of 0 is -0.998437
weight of 1 is -0.482218
weight of 2 is -32.511111
weight of 3 is -2.000000
not used!
deny
deny
weight of 0 is -1.491263
weight of 1 is -0.524919
weight of 2 is -33.755556
weight of 3 is -3.000000
not used!
deny
deny
weight of 0 is -0.998962
weight of 1 is -0.502957
weight of 2 is -33.755556
weight of 3 is -2.000000
used!
weight of 0 is -0.506660
weight of 1 is -0.480994
weight of 2 is -33.755556
weight of 3 is -1.000000
used!
deny
deny
deny
deny
weight of 0 is -0.998962
weight of 1 is -0.481464
weight of 2 is -33.755556
weight of 3 is -2.000000
not used!
deny
deny
deny
deny
deny
deny
weight of 0 is -0.506660
weight of 1 is -0.481408
weight of 2 is -33.755556
weight of 3 is -1.000000
used!
weight of 0 is -0.014359
weight of 1 is -0.481351
weight of 2 is -33.755556
weight of 3 is 0.000000
used!
accept
accept
accept
accept
weight of 0 is 0.477943
weight of 1 is -0.481182
weight of 2 is -33.755556
weight of 3 is 1.000000
used!
weight of 0 is 0.970244
weight of 1 is -0.481013
weight of 2 is -33.755556
weight of 3 is 2.000000
used!
accept
accept
deny
deny
weight of 0 is 0.477443
weight of 1 is -0.521673
weight of 2 is -34.111111
weight of 3 is 1.000000
not used!
deny
deny
accept
accept
weight of 0 is -0.015357
weight of 1 is -0.562259
weight of 2 is -34.466667
weight of 3 is 0.000000
not used!
deny
deny
deny
deny
accept
accept
weight of 0 is -0.507658
weight of 1 is -0.602788
weight of 2 is -34.466667
weight of 3 is -1.000000
not used!
deny
deny
deny
deny
deny
deny
deny
deny
deny
deny
deny
deny
deny
deny
deny
deny
deny
deny
deny
deny
deny
deny
weight of 0 is -0.015357
weight of 1 is -0.584955
weight of 2 is -34.466667
weight of 3 is 0.000000
used!
weight of 0 is 0.476944
weight of 1 is -0.567122
weight of 2 is -34.466667
weight of 3 is 1.000000
used!
accept
accept
weight of 0 is 0.969246
weight of 1 is -0.567103
weight of 2 is -34.466667
weight of 3 is 2.000000
used!
weight of 0 is 1.461547
weight of 1 is -0.567085
weight of 2 is -34.466667
weight of 3 is 3.000000
used!
deny
deny
accept
accept
weight of 0 is 1.953849
weight of 1 is -0.567066
weight of 2 is -34.466667
weight of 3 is 4.000000
used!
weight of 0 is 2.446151
weight of 1 is -0.567047
weight of 2 is -34.466667
weight of 3 is 5.000000
used!
deny
deny
accept
accept
accept
accept
accept
accept
accept
accept
accept
accept
accept
accept
deny
deny
accept
accept
deny
deny
accept
accept
deny
deny
deny
deny
deny
deny
accept
accept
deny
deny
deny
deny
deny
deny
accept
accept
deny
deny
weight of 0 is 1.953849
weight of 1 is -0.567141
weight of 2 is -34.466667
weight of 3 is 4.000000
not used!
deny
deny
deny
deny
deny
deny
deny
deny
weight of 0 is 2.446480
weight of 1 is -0.560612
weight of 2 is -34.022222
weight of 3 is 5.000000
used!
weight of 0 is 2.939112
weight of 1 is -0.554084
weight of 2 is -33.577778
weight of 3 is 6.000000
used!
accept
accept
accept
accept
accept
accept
accept
accept
accept
accept
deny
deny
weight of 0 is 3.431767
weight of 1 is -0.542122
weight of 2 is -32.511111
weight of 3 is 7.000000
used!
weight of 0 is 3.924423
weight of 1 is -0.530161
weight of 2 is -31.444444
weight of 3 is 8.000000
used!
accept
accept
accept
accept
accept
accept
deny
deny
accept
accept
accept
accept
accept
accept
weight of 0 is 3.432121
weight of 1 is -0.531062
weight of 2 is -31.444444
weight of 3 is 7.000000
not used!
deny
deny
accept
accept
accept
accept
deny
deny
weight of 0 is 3.924881
weight of 1 is -0.511235
weight of 2 is -30.911111
weight of 3 is 8.000000
used!
weight of 0 is 4.417641
weight of 1 is -0.491407
weight of 2 is -30.377778
weight of 3 is 9.000000
used!
deny
deny
deny
deny
weight of 0 is 4.910450
weight of 1 is -0.491338
weight of 2 is -29.311111
weight of 3 is 10.000000
used!
weight of 0 is 5.403259
weight of 1 is -0.491270
weight of 2 is -28.244444
weight of 3 is 11.000000
used!
accept
accept
deny
deny
weight of 0 is 5.896068
weight of 1 is -0.491253
weight of 2 is -27.355556
weight of 3 is 12.000000
used!
weight of 0 is 6.388877
weight of 1 is -0.491237
weight of 2 is -26.466667
weight of 3 is 13.000000
used!
accept
accept
deny
deny
accept
accept
accept
accept
weight of 0 is 6.881687
weight of 1 is -0.491220
weight of 2 is -25.755556
weight of 3 is 14.000000
used!
weight of 0 is 7.374496
weight of 1 is -0.491204
weight of 2 is -25.044444
weight of 3 is 15.000000
used!
accept
accept
weight of 0 is 6.882195
weight of 1 is -0.491223
weight of 2 is -25.044444
weight of 3 is 14.000000
not used!
accept
accept
accept
accept
accept
accept
accept
accept
deny
deny
weight of 0 is 6.389893
weight of 1 is -0.494680
weight of 2 is -25.044444
weight of 3 is 13.000000
not used!
weight of 0 is 5.897592
weight of 1 is -0.494849
weight of 2 is -25.044444
weight of 3 is 12.000000
not used!
deny
deny
deny
deny
weight of 0 is 5.405816
weight of 1 is -0.516548
weight of 2 is -25.044444
weight of 3 is 11.000000
not used!
deny
deny
weight of 0 is 5.898553
weight of 1 is -0.514956
weight of 2 is -24.333333
weight of 3 is 12.000000
used!
weight of 0 is 6.391290
weight of 1 is -0.513364
weight of 2 is -23.622222
weight of 3 is 13.000000
used!
deny
deny
deny
deny
weight of 0 is 6.884026
weight of 1 is -0.513344
weight of 2 is -22.555556
weight of 3 is 14.000000
used!
weight of 0 is 7.376762
weight of 1 is -0.513324
weight of 2 is -21.488889
weight of 3 is 15.000000
used!
accept
accept
weight of 0 is 7.869499
weight of 1 is -0.513301
weight of 2 is -20.511111
weight of 3 is 16.000000
used!
weight of 0 is 8.362236
weight of 1 is -0.513279
weight of 2 is -19.533333
weight of 3 is 17.000000
used!
weight of 0 is 7.869935
weight of 1 is -0.513392
weight of 2 is -19.533333
weight of 3 is 16.000000
not used!
accept
accept
accept
accept
accept
accept
accept
accept
accept
accept
weight of 0 is 7.377633
weight of 1 is -0.530190
weight of 2 is -19.533333
weight of 3 is 15.000000
not used!
accept
accept
accept
accept
accept
accept
accept
accept
weight of 0 is 7.870370
weight of 1 is -0.530135
weight of 2 is -18.733333
weight of 3 is 16.000000
used!
weight of 0 is 8.363106
weight of 1 is -0.530080
weight of 2 is -17.933333
weight of 3 is 17.000000
used!
accept
accept
accept
accept
deny
deny
accept
accept
weight of 0 is 7.870805
weight of 1 is -0.533792
weight of 2 is -17.933333
weight of 3 is 16.000000
not used!
weight of 0 is 7.378503
weight of 1 is -0.558373
weight of 2 is -17.933333
weight of 3 is 15.000000
not used!
weight of 0 is 6.886202
weight of 1 is -0.558392
weight of 2 is -17.933333
weight of 3 is 14.000000
not used!
accept
accept
warn: ignoring syscall mprotect(...)
accept
accept
deny
deny
weight of 0 is 6.393900
weight of 1 is -0.558504
weight of 2 is -17.933333
weight of 3 is 13.000000
not used!
accept
accept
weight of 0 is 5.901553
weight of 1 is -0.561961
weight of 2 is -17.933333
weight of 3 is 12.000000
not used!
accept
accept
accept
accept
accept
accept
accept
accept
accept
accept
weight of 0 is 5.409252
weight of 1 is -0.596690
weight of 2 is -17.933333
weight of 3 is 11.000000
not used!
accept
accept
accept
accept
weight of 0 is 4.916625
weight of 1 is -0.603196
weight of 2 is -18.022222
weight of 3 is 10.000000
not used!
deny
deny
accept
accept
accept
accept
weight of 0 is 4.423993
weight of 1 is -0.603218
weight of 2 is -18.111111
weight of 3 is 9.000000
not used!
accept
accept
accept
accept
weight of 0 is 3.931691
weight of 1 is -0.603443
weight of 2 is -18.111111
weight of 3 is 8.000000
not used!
accept
accept
accept
accept
accept
accept
accept
accept
accept
accept
accept
accept
accept
accept
weight of 0 is 3.439360
weight of 1 is -0.631060
weight of 2 is -18.111111
weight of 3 is 7.000000
not used!
weight of 0 is 2.947059
weight of 1 is -0.658847
weight of 2 is -18.111111
weight of 3 is 6.000000
not used!
deny
deny
weight of 0 is 2.454250
weight of 1 is -0.700087
weight of 2 is -18.244444
weight of 3 is 5.000000
not used!
weight of 0 is 1.961949
weight of 1 is -0.741372
weight of 2 is -18.244444
weight of 3 is 4.000000
not used!
weight of 0 is 1.469456
weight of 1 is -0.751578
weight of 2 is -18.244444
weight of 3 is 3.000000
not used!
weight of 0 is 0.976960
weight of 1 is -0.751897
weight of 2 is -18.244444
weight of 3 is 2.000000
not used!
weight of 0 is 0.484658
weight of 1 is -0.767566
weight of 2 is -18.244444
weight of 3 is 1.000000
not used!
deny
deny
accept
accept
weight of 0 is -0.007643
weight of 1 is -0.789246
weight of 2 is -18.244444
weight of 3 is 0.000000
not used!
deny
deny
deny
deny
deny
deny
deny
deny
deny
deny
deny
deny
deny
deny
deny
deny
deny
deny
deny
deny
deny
deny
deny
deny
weight of 0 is 0.485006
weight of 1 is -0.781140
weight of 2 is -17.800000
weight of 3 is 1.000000
used!
weight of 0 is 0.977656
weight of 1 is -0.773033
weight of 2 is -17.355556
weight of 3 is 2.000000
used!
deny
deny
deny
deny
deny
deny
weight of 0 is 1.470410
weight of 1 is -0.764665
weight of 2 is -16.333333
weight of 3 is 3.000000
used!
weight of 0 is 1.963164
weight of 1 is -0.756297
weight of 2 is -15.311111
weight of 3 is 4.000000
used!
deny
deny
accept
accept
weight of 0 is 1.470427
weight of 1 is -0.756322
weight of 2 is -15.666667
weight of 3 is 3.000000
not used!
deny
deny
weight of 0 is 1.963181
weight of 1 is -0.756300
weight of 2 is -15.000000
weight of 3 is 4.000000
used!
weight of 0 is 2.455936
weight of 1 is -0.756279
weight of 2 is -14.333333
weight of 3 is 5.000000
used!
weight of 0 is 1.963427
weight of 1 is -0.756368
weight of 2 is -14.333333
weight of 3 is 4.000000
not used!
weight of 0 is 1.471125
weight of 1 is -0.798095
weight of 2 is -14.333333
weight of 3 is 3.000000
not used!
weight of 0 is 0.978824
weight of 1 is -0.837823
weight of 2 is -14.333333
weight of 3 is 2.000000
not used!
weight of 0 is 0.486013
weight of 1 is -0.879260
weight of 2 is -15.222222
weight of 3 is 1.000000
not used!
weight of 0 is -0.006775
weight of 1 is -0.918857
weight of 2 is -16.111111
weight of 3 is 0.000000
not used!
weight of 0 is -0.499076
weight of 1 is -0.941608
weight of 2 is -16.111111
weight of 3 is -1.000000
not used!
deny
deny
deny
deny
deny
deny
weight of 0 is -0.991378
weight of 1 is -0.942735
weight of 2 is -16.111111
weight of 3 is -2.000000
not used!
deny
deny
weight of 0 is -1.495504
weight of 1 is -1.929543
weight of 2 is -16.555556
weight of 3 is -3.000000
not used!
deny
deny
weight of 0 is -1.002762
weight of 1 is -1.929521
weight of 2 is -15.400000
weight of 3 is -2.000000
used!
weight of 0 is -0.510020
weight of 1 is -1.929499
weight of 2 is -14.244444
weight of 3 is -1.000000
used!
deny
deny
weight of 0 is -0.017279
weight of 1 is -1.914513
weight of 2 is -13.355556
weight of 3 is 0.000000
used!
weight of 0 is 0.475463
weight of 1 is -1.899526
weight of 2 is -12.466667
weight of 3 is 1.000000
used!
accept
accept
deny
deny
deny
deny
deny
deny
weight of 0 is 0.968203
weight of 1 is -1.899471
weight of 2 is -11.488889
weight of 3 is 2.000000
used!
weight of 0 is 1.460944
weight of 1 is -1.899416
weight of 2 is -10.511111
weight of 3 is 3.000000
used!
deny
deny
weight of 0 is 1.953686
weight of 1 is -1.899391
weight of 2 is -9.977778
weight of 3 is 4.000000
used!
weight of 0 is 2.446427
weight of 1 is -1.899367
weight of 2 is -9.444444
weight of 3 is 5.000000
used!
deny
deny
warn: ignoring syscall mprotect(...)
weight of 0 is 1.953622
weight of 1 is -2.844987
weight of 2 is -9.444444
weight of 3 is 4.000000
not used!
weight of 0 is 1.461320
weight of 1 is -2.845250
weight of 2 is -9.444444
weight of 3 is 3.000000
not used!
deny
deny
accept
accept
accept
accept
weight of 0 is 0.968352
weight of 1 is -2.904942
weight of 2 is -9.800000
weight of 3 is 2.000000
not used!
accept
accept
accept
accept
accept
accept
accept
accept
weight of 0 is 0.476051
weight of 1 is -2.964577
weight of 2 is -9.800000
weight of 3 is 1.000000
not used!
weight of 0 is -0.016251
weight of 1 is -2.965141
weight of 2 is -9.800000
weight of 3 is 0.000000
not used!
accept
accept
accept
accept
accept
accept
weight of 0 is -0.508552
weight of 1 is -2.972656
weight of 2 is -9.800000
weight of 3 is -1.000000
not used!
deny
deny
deny
deny
weight of 0 is -1.000854
weight of 1 is -2.972712
weight of 2 is -9.800000
weight of 3 is -2.000000
not used!
deny
deny
deny
deny
deny
deny
deny
deny
deny
deny
deny
deny
deny
deny
deny
deny
weight of 0 is -0.481987
weight of 1 is -2.969988
weight of 2 is -9.800000
weight of 3 is -1.000000
used!
weight of 0 is 0.036880
weight of 1 is -2.967264
weight of 2 is -9.800000
weight of 3 is 0.000000
used!
accept
accept
weight of 0 is 0.555747
weight of 1 is -0.846297
weight of 2 is -9.800000
weight of 3 is 1.000000
used!
weight of 0 is 1.074614
weight of 1 is 1.274669
weight of 2 is -9.800000
weight of 3 is 2.000000
used!
accept
accept
weight of 0 is 1.567423
weight of 1 is 3.395633
weight of 2 is -9.266667
weight of 3 is 3.000000
used!
weight of 0 is 2.060232
weight of 1 is 5.516598
weight of 2 is -8.733333
weight of 3 is 4.000000
used!
accept
accept
accept
accept
accept
accept
accept
accept
accept
accept
weight of 0 is 1.567931
weight of 1 is 5.454158
weight of 2 is -8.733333
weight of 3 is 3.000000
not used!
accept
accept
accept
accept
accept
accept
deny
deny
deny
deny
weight of 0 is 1.075629
weight of 1 is 5.422267
weight of 2 is -8.733333
weight of 3 is 2.000000
not used!
deny
deny
accept
accept
accept
accept
accept
accept
accept
accept
accept
accept
accept
accept
accept
accept
accept
accept
accept
accept
accept
accept
accept
accept
accept
accept
deny
deny
accept
accept
accept
accept
accept
accept
accept
accept
accept
accept
accept
accept
accept
accept
accept
accept
accept
accept
weight of 0 is 0.583116
weight of 1 is 5.422171
weight of 2 is -8.733333
weight of 3 is 1.000000
not used!
accept
accept
deny
deny
accept
accept
deny
deny
deny
deny
accept
accept
accept
accept
accept
accept
accept
accept
deny
deny
accept
accept
accept
accept
accept
accept
accept
accept
deny
deny
accept
accept
accept
accept
deny
deny
deny
deny
accept
accept
accept
accept
weight of 0 is 0.090306
weight of 1 is 3.301184
weight of 2 is -8.911111
weight of 3 is 0.000000
not used!
weight of 0 is -0.428562
weight of 1 is 1.180139
weight of 2 is -8.911111
weight of 3 is -1.000000
not used!
deny
deny
deny
deny
deny
deny
weight of 0 is -0.920863
weight of 1 is -0.981957
weight of 2 is -8.911111
weight of 3 is -2.000000
not used!
deny
deny
weight of 0 is -0.416225
weight of 1 is -0.030903
weight of 2 is -8.555556
weight of 3 is -1.000000
used!
weight of 0 is 0.088414
weight of 1 is 0.920152
weight of 2 is -8.200000
weight of 3 is 0.000000
used!
accept
accept
weight of 0 is 0.593053
weight of 1 is 0.920167
weight of 2 is -8.111111
weight of 3 is 1.000000
used!
weight of 0 is 1.097692
weight of 1 is 0.920182
weight of 2 is -8.022222
weight of 3 is 2.000000
used!
weight of 0 is 0.593320
weight of 1 is -0.067613
weight of 2 is -9.266667
weight of 3 is 1.000000
not used!
weight of 0 is 0.088947
weight of 1 is -0.067615
weight of 2 is -9.266667
weight of 3 is 0.000000
not used!
deny
deny
deny
deny
deny
deny
accept
accept
deny
deny
accept
accept
deny
deny
accept
accept
deny
deny
deny
deny
accept
accept
accept
accept
deny
deny
weight of 0 is 0.607766
weight of 1 is -0.067608
weight of 2 is -7.933333
weight of 3 is 1.000000
used!
weight of 0 is 1.126586
weight of 1 is -0.067601
weight of 2 is -6.600000
weight of 3 is 2.000000
used!
accept
accept
weight of 0 is 1.645406
weight of 1 is 1.087071
weight of 2 is -6.155556
weight of 3 is 3.000000
used!
weight of 0 is 2.164225
weight of 1 is 2.241743
weight of 2 is -5.711111
weight of 3 is 4.000000
used!
accept
accept
accept
accept
accept
accept
weight of 0 is 1.671924
weight of 1 is 2.241330
weight of 2 is -5.711111
weight of 3 is 3.000000
not used!
accept
accept
accept
accept
accept
accept
accept
accept
accept
accept
accept
accept
accept
accept
accept
accept
accept
accept
accept
accept
accept
accept
accept
accept
accept
accept
accept
accept
accept
accept
accept
accept
accept
accept
weight of 0 is 1.179623
weight of 1 is 2.241273
weight of 2 is -5.711111
weight of 3 is 2.000000
not used!
accept
accept
accept
accept
weight of 0 is 0.687321
weight of 1 is 0.079158
weight of 2 is -5.711111
weight of 3 is 1.000000
not used!
accept
accept
accept
accept
accept
accept
weight of 0 is 0.195020
weight of 1 is 0.078575
weight of 2 is -5.711111
weight of 3 is 0.000000
not used!
weight of 0 is -0.297282
weight of 1 is 0.078538
weight of 2 is -5.711111
weight of 3 is -1.000000
not used!
weight of 0 is -0.789583
weight of 1 is 0.078256
weight of 2 is -5.711111
weight of 3 is -2.000000
not used!
weight of 0 is -1.281884
weight of 1 is 0.072094
weight of 2 is -5.711111
weight of 3 is -3.000000
not used!
deny
deny
weight of 0 is -1.774610
weight of 1 is 0.072091
weight of 2 is -5.711111
weight of 3 is -4.000000
not used!
deny
deny
deny
deny
weight of 0 is -1.282309
weight of 1 is 0.080395
weight of 2 is -5.711111
weight of 3 is -3.000000
used!
weight of 0 is -0.790008
weight of 1 is 0.088699
weight of 2 is -5.711111
weight of 3 is -2.000000
used!
deny
deny
deny
deny
deny
deny
weight of 0 is -1.282309
weight of 1 is 0.088662
weight of 2 is -5.711111
weight of 3 is -3.000000
not used!
deny
deny
weight of 0 is -0.790008
weight of 1 is 0.089921
weight of 2 is -5.711111
weight of 3 is -2.000000
used!
weight of 0 is -0.297706
weight of 1 is 0.091179
weight of 2 is -5.711111
weight of 3 is -1.000000
used!
deny
deny
weight of 0 is 0.194595
weight of 1 is 0.091198
weight of 2 is -5.711111
weight of 3 is 0.000000
used!
weight of 0 is 0.686897
weight of 1 is 0.091217
weight of 2 is -5.711111
weight of 3 is 1.000000
used!
accept
accept
weight of 0 is 1.179198
weight of 1 is 0.091236
weight of 2 is -5.711111
weight of 3 is 2.000000
used!
weight of 0 is 1.671500
weight of 1 is 0.091255
weight of 2 is -5.711111
weight of 3 is 3.000000
used!
accept
accept
weight of 0 is 2.163802
weight of 1 is 0.091273
weight of 2 is -5.711111
weight of 3 is 4.000000
used!
weight of 0 is 2.656103
weight of 1 is 0.091292
weight of 2 is -5.711111
weight of 3 is 5.000000
used!
weight of 0 is 2.163802
weight of 1 is 0.090522
weight of 2 is -5.711111
weight of 3 is 4.000000
not used!
accept
accept
accept
accept
weight of 0 is 1.671500
weight of 1 is 0.077108
weight of 2 is -5.711111
weight of 3 is 3.000000
not used!
weight of 0 is 1.179198
weight of 1 is 0.060256
weight of 2 is -5.711111
weight of 3 is 2.000000
not used!
deny
deny
accept
accept
accept
accept
accept
accept
accept
accept
accept
accept
accept
accept
accept
accept
accept
accept
accept
accept
weight of 0 is 0.686897
weight of 1 is 0.028256
weight of 2 is -5.711111
weight of 3 is 1.000000
not used!
accept
accept
deny
deny
accept
accept
weight of 0 is 1.191615
weight of 1 is 0.028270
weight of 2 is -5.355556
weight of 3 is 2.000000
used!
weight of 0 is 1.696332
weight of 1 is 0.028284
weight of 2 is -5.000000
weight of 3 is 3.000000
used!
accept
accept
weight of 0 is 1.204424
weight of 1 is -0.003258
weight of 2 is -5.088889
weight of 3 is 2.000000
not used!
accept
accept
accept
accept
accept
accept
accept
accept
accept
accept
accept
accept
accept
accept
accept
accept
accept
accept
accept
accept
accept
accept
accept
accept
accept
accept
accept
accept
accept
accept
accept
accept
accept
accept
accept
accept
weight of 0 is 0.712122
weight of 1 is -0.035148
weight of 2 is -5.088889
weight of 3 is 1.000000
not used!
accept
accept
accept
accept
accept
accept
weight of 0 is 0.219820
weight of 1 is -0.039169
weight of 2 is -5.088889
weight of 3 is 0.000000
not used!
accept
accept
accept
accept
weight of 0 is -0.272995
weight of 1 is -0.039220
weight of 2 is -5.311111
weight of 3 is -1.000000
not used!
deny
deny
weight of 0 is -0.765058
weight of 1 is -0.111498
weight of 2 is -5.311111
weight of 3 is -2.000000
not used!
deny
deny
deny
deny
weight of 0 is -0.260333
weight of 1 is -0.111441
weight of 2 is -5.311111
weight of 3 is -1.000000
used!
weight of 0 is 0.244393
weight of 1 is -0.111385
weight of 2 is -5.311111
weight of 3 is 0.000000
used!
accept
accept
weight of 0 is 0.749118
weight of 1 is -0.111364
weight of 2 is -5.133333
weight of 3 is 1.000000
used!
weight of 0 is 1.253844
weight of 1 is -0.111343
weight of 2 is -4.955556
weight of 3 is 2.000000
used!
accept
accept
accept
accept
accept
accept
accept
accept
accept
accept
accept
accept
accept
accept
accept
accept
accept
accept
weight of 0 is 0.760895
weight of 1 is -0.111355
weight of 2 is -5.044444
weight of 3 is 1.000000
not used!
accept
accept
accept
accept
accept
accept
accept
accept
accept
accept
accept
accept
accept
accept
accept
accept
accept
accept
accept
accept
accept
accept
weight of 0 is 0.242076
weight of 1 is -0.111369
weight of 2 is -5.222222
weight of 3 is 0.000000
not used!
weight of 0 is -0.250226
weight of 1 is -2.285924
weight of 2 is -5.222222
weight of 3 is -1.000000
not used!
deny
deny
deny
deny
deny
deny
weight of 0 is 0.254506
weight of 1 is -1.145200
weight of 2 is -5.044444
weight of 3 is 0.000000
used!
weight of 0 is 0.759238
weight of 1 is -0.004476
weight of 2 is -4.866667
weight of 3 is 1.000000
used!
accept
accept
weight of 0 is 1.263970
weight of 1 is -0.004455
weight of 2 is -4.511111
weight of 3 is 2.000000
used!
weight of 0 is 1.768702
weight of 1 is -0.004434
weight of 2 is -4.155556
weight of 3 is 3.000000
used!
accept
accept
weight of 0 is 2.273435
weight of 1 is -0.004420
weight of 2 is -4.155556
weight of 3 is 4.000000
used!
weight of 0 is 2.778167
weight of 1 is -0.004406
weight of 2 is -4.155556
weight of 3 is 5.000000
used!
accept
accept
weight of 0 is 2.285865
weight of 1 is -0.004462
weight of 2 is -4.155556
weight of 3 is 4.000000
not used!
accept
accept
accept
accept
accept
accept
accept
accept
accept
accept
accept
accept
weight of 0 is 1.793564
weight of 1 is -0.004518
weight of 2 is -4.155556
weight of 3 is 3.000000
not used!
accept
accept
accept
accept
accept
accept
accept
accept
accept
accept
accept
accept
accept
accept
accept
accept
accept
accept
accept
accept
accept
accept
accept
accept
accept
accept
accept
accept
accept
accept
accept
accept
accept
accept
accept
accept
accept
accept
accept
accept
accept
accept
accept
accept
accept
accept
accept
accept
accept
accept
accept
accept
accept
accept
weight of 0 is 1.274736
weight of 1 is -0.004575
weight of 2 is -4.155556
weight of 3 is 2.000000
not used!
accept
accept
weight of 0 is 0.755907
weight of 1 is -0.004612
weight of 2 is -4.155556
weight of 3 is 1.000000
not used!
accept
accept
accept
accept
accept
accept
accept
accept
accept
accept
accept
accept
accept
accept
accept
accept
accept
accept
accept
accept
accept
accept
accept
accept
accept
accept
weight of 0 is 0.263606
weight of 1 is -0.012541
weight of 2 is -4.155556
weight of 3 is 0.000000
not used!
accept
accept
accept
accept
deny
deny
accept
accept
accept
accept
weight of 0 is 0.768352
weight of 1 is -0.012519
weight of 2 is -3.800000
weight of 3 is 1.000000
used!
weight of 0 is 1.273099
weight of 1 is -0.012498
weight of 2 is -3.444444
weight of 3 is 2.000000
used!
accept
accept
accept
accept
accept
accept
accept
accept
accept
accept
accept
accept
accept
accept
accept
accept
accept
accept
accept
accept
weight of 0 is 0.780798
weight of 1 is -0.012818
weight of 2 is -3.444444
weight of 3 is 1.000000
not used!
accept
accept
weight of 0 is 0.288496
weight of 1 is -0.013118
weight of 2 is -3.444444
weight of 3 is 0.000000
not used!
accept
accept
weight of 0 is -0.203805
weight of 1 is -0.013175
weight of 2 is -3.444444
weight of 3 is -1.000000
not used!
deny
deny
deny
deny
deny
deny
deny
deny
weight of 0 is 0.300946
weight of 1 is -0.013153
weight of 2 is -3.088889
weight of 3 is 0.000000
used!
weight of 0 is 0.805697
weight of 1 is -0.013132
weight of 2 is -2.733333
weight of 3 is 1.000000
used!
accept
accept
weight of 0 is 1.310448
weight of 1 is -0.013118
weight of 2 is -2.733333
weight of 3 is 2.000000
used!
weight of 0 is 1.815199
weight of 1 is -0.013104
weight of 2 is -2.733333
weight of 3 is 3.000000
used!
accept
accept
weight of 0 is 2.319950
weight of 1 is 1.126812
weight of 2 is -2.555556
weight of 3 is 4.000000
used!
weight of 0 is 2.824702
weight of 1 is 2.266728
weight of 2 is -2.377778
weight of 3 is 5.000000
used!
accept
accept
accept
accept
accept
accept
accept
accept
weight of 0 is 2.319986
weight of 1 is 1.125112
weight of 2 is -2.555556
weight of 3 is 4.000000
not used!
accept
accept
weight of 0 is 1.815271
weight of 1 is 1.125090
weight of 2 is -2.911111
weight of 3 is 3.000000
not used!
accept
accept
weight of 0 is 1.310555
weight of 1 is 1.125076
weight of 2 is -2.911111
weight of 3 is 2.000000
not used!
weight of 0 is 0.805839
weight of 1 is 1.125055
weight of 2 is -3.088889
weight of 3 is 1.000000
not used!
accept
accept
accept
accept
accept
accept
accept
accept
accept
accept
weight of 0 is 0.301123
weight of 1 is -0.016479
weight of 2 is -3.088889
weight of 3 is 0.000000
not used!
weight of 0 is -0.203594
weight of 1 is -0.016500
weight of 2 is -3.266667
weight of 3 is -1.000000
not used!
weight of 0 is -0.708311
weight of 1 is -0.016521
weight of 2 is -3.622222
weight of 3 is -2.000000
not used!
deny
deny
weight of 0 is -1.213028
weight of 1 is -0.016535
weight of 2 is -3.622222
weight of 3 is -3.000000
not used!
deny
deny
deny
deny
weight of 0 is -0.708273
weight of 1 is -0.016479
weight of 2 is -3.444444
weight of 3 is -2.000000
used!
weight of 0 is -0.203518
weight of 1 is -0.016422
weight of 2 is -3.266667
weight of 3 is -1.000000
used!
deny
deny
weight of 0 is 0.301237
weight of 1 is -0.016401
weight of 2 is -2.911111
weight of 3 is 0.000000
used!
weight of 0 is 0.805992
weight of 1 is -0.016380
weight of 2 is -2.555556
weight of 3 is 1.000000
used!
weight of 0 is 0.301274
weight of 1 is -0.016437
weight of 2 is -2.555556
weight of 3 is 0.000000
not used!
accept
accept
weight of 0 is 0.806029
weight of 1 is -0.016422
weight of 2 is -2.555556
weight of 3 is 1.000000
used!
weight of 0 is 1.310784
weight of 1 is -0.016408
weight of 2 is -2.555556
weight of 3 is 2.000000
used!
accept
accept
weight of 0 is 1.815540
weight of 1 is -0.016387
weight of 2 is -2.377778
weight of 3 is 3.000000
used!
weight of 0 is 2.320295
weight of 1 is -0.016366
weight of 2 is -2.200000
weight of 3 is 4.000000
used!
accept
accept
weight of 0 is 1.815577
weight of 1 is -0.016401
weight of 2 is -2.377778
weight of 3 is 3.000000
not used!
accept
accept
accept
accept
accept
accept
accept
accept
accept
accept
accept
accept
weight of 0 is 1.310859
weight of 1 is -0.016458
weight of 2 is -2.733333
weight of 3 is 2.000000
not used!
accept
accept
weight of 0 is 0.806139
weight of 1 is -0.016472
weight of 2 is -2.733333
weight of 3 is 1.000000
not used!
accept
accept
weight of 0 is 0.301420
weight of 1 is -0.016493
weight of 2 is -2.911111
weight of 3 is 0.000000
not used!
accept
accept
deny
deny
accept
accept
weight of 0 is -0.203300
weight of 1 is -1.157759
weight of 2 is -3.266667
weight of 3 is -1.000000
not used!
deny
deny
weight of 0 is 0.301459
weight of 1 is -1.157738
weight of 2 is -2.911111
weight of 3 is 0.000000
used!
weight of 0 is 0.806218
weight of 1 is -1.157717
weight of 2 is -2.555556
weight of 3 is 1.000000
used!
weight of 0 is 0.301498
weight of 1 is -1.157731
weight of 2 is -2.555556
weight of 3 is 0.000000
not used!
accept
accept
weight of 0 is -0.203223
weight of 1 is -1.157752
weight of 2 is -2.733333
weight of 3 is -1.000000
not used!
deny
deny
weight of 0 is 0.301536
weight of 1 is -1.157731
weight of 2 is -2.555556
weight of 3 is 0.000000
used!
weight of 0 is 0.806296
weight of 1 is -1.157710
weight of 2 is -2.377778
weight of 3 is 1.000000
used!
weight of 0 is 0.301575
weight of 1 is -1.157731
weight of 2 is -2.733333
weight of 3 is 0.000000
not used!
deny
deny
weight of 0 is -0.203146
weight of 1 is -1.157745
weight of 2 is -2.733333
weight of 3 is -1.000000
not used!
weight of 0 is -0.707868
weight of 1 is -1.157766
weight of 2 is -2.911111
weight of 3 is -2.000000
not used!
deny
deny
deny
deny
weight of 0 is -0.203108
weight of 1 is -1.157752
weight of 2 is -2.911111
weight of 3 is -1.000000
used!
weight of 0 is 0.301653
weight of 1 is -1.157738
weight of 2 is -2.911111
weight of 3 is 0.000000
used!
accept
accept
weight of 0 is 0.806413
weight of 1 is -0.018311
weight of 2 is -2.733333
weight of 3 is 1.000000
used!
weight of 0 is 1.311173
weight of 1 is 1.121117
weight of 2 is -2.555556
weight of 3 is 2.000000
used!
accept
accept
accept
accept
weight of 0 is 1.815934
weight of 1 is 1.121138
weight of 2 is -2.200000
weight of 3 is 3.000000
used!
weight of 0 is 2.320695
weight of 1 is 1.121159
weight of 2 is -1.844444
weight of 3 is 4.000000
used!
weight of 0 is 1.815972
weight of 1 is 1.121103
weight of 2 is -2.200000
weight of 3 is 3.000000
not used!
weight of 0 is 1.311250
weight of 1 is 1.121089
weight of 2 is -2.200000
weight of 3 is 2.000000
not used!
accept
accept
weight of 0 is 0.806527
weight of 1 is 1.121068
weight of 2 is -2.377778
weight of 3 is 1.000000
not used!
accept
accept
accept
accept
accept
accept
accept
accept
accept
accept
weight of 0 is 0.301803
weight of 1 is 1.121011
weight of 2 is -2.733333
weight of 3 is 0.000000
not used!
weight of 0 is -0.202921
weight of 1 is 1.120997
weight of 2 is -2.733333
weight of 3 is -1.000000
not used!
deny
deny
weight of 0 is -0.707645
weight of 1 is 1.120976
weight of 2 is -2.911111
weight of 3 is -2.000000
not used!
deny
deny
deny
deny
weight of 0 is -0.202882
weight of 1 is 2.260232
weight of 2 is -2.555556
weight of 3 is -1.000000
used!
weight of 0 is 0.301881
weight of 1 is 3.399488
weight of 2 is -2.200000
weight of 3 is 0.000000
used!
accept
accept
weight of 0 is 0.806645
weight of 1 is 3.399502
weight of 2 is -2.200000
weight of 3 is 1.000000
used!
weight of 0 is 1.311408
weight of 1 is 3.399516
weight of 2 is -2.200000
weight of 3 is 2.000000
used!
accept
accept
weight of 0 is 1.816172
weight of 1 is 3.399537
weight of 2 is -2.022222
weight of 3 is 3.000000
used!
weight of 0 is 2.320936
weight of 1 is 3.399558
weight of 2 is -1.844444
weight of 3 is 4.000000
used!
accept
accept
accept
accept
accept
accept
accept
accept
accept
accept
accept
accept
accept
accept
weight of 0 is 1.816209
weight of 1 is 2.258588
weight of 2 is -1.844444
weight of 3 is 3.000000
not used!
accept
accept
accept
accept
weight of 0 is 1.311482
weight of 1 is 2.258567
weight of 2 is -2.022222
weight of 3 is 2.000000
not used!
weight of 0 is 0.806755
weight of 1 is 2.258546
weight of 2 is -2.377778
weight of 3 is 1.000000
not used!
weight of 0 is 0.302028
weight of 1 is 2.258532
weight of 2 is -2.377778
weight of 3 is 0.000000
not used!
accept
accept
weight of 0 is -0.202700
weight of 1 is 2.258511
weight of 2 is -2.555556
weight of 3 is -1.000000
not used!
deny
deny
accept
accept
accept
accept
weight of 0 is -0.707429
weight of 1 is 2.258454
weight of 2 is -2.911111
weight of 3 is -2.000000
not used!
deny
deny
weight of 0 is -1.212158
weight of 1 is 2.258440
weight of 2 is -2.911111
weight of 3 is -3.000000
not used!
deny
deny
weight of 0 is -1.716887
weight of 1 is 2.258419
weight of 2 is -3.088889
weight of 3 is -4.000000
not used!
deny
deny
weight of 0 is -2.221616
weight of 1 is 2.258398
weight of 2 is -3.444444
weight of 3 is -5.000000
not used!
deny
deny
deny
deny
weight of 0 is -1.702852
weight of 1 is 3.397682
weight of 2 is -2.733333
weight of 3 is -4.000000
used!
weight of 0 is -1.184088
weight of 1 is 4.536966
weight of 2 is -2.022222
weight of 3 is -3.000000
used!
accept
accept
weight of 0 is -0.679320
weight of 1 is 5.676194
weight of 2 is -1.666667
weight of 3 is -2.000000
used!
weight of 0 is -0.174551
weight of 1 is 6.815422
weight of 2 is -1.311111
weight of 3 is -1.000000
used!
accept
accept
weight of 0 is 0.344213
weight of 1 is 7.954659
weight of 2 is -1.311111
weight of 3 is 0.000000
used!
weight of 0 is 0.862977
weight of 1 is 9.093896
weight of 2 is -1.311111
weight of 3 is 1.000000
used!
weight of 0 is 0.358247
weight of 1 is 9.093840
weight of 2 is -1.311111
weight of 3 is 0.000000
not used!
weight of 0 is -0.146484
weight of 1 is 9.093819
weight of 2 is -1.488889
weight of 3 is -1.000000
not used!
deny
deny
weight of 0 is -0.651214
weight of 1 is 9.093798
weight of 2 is -1.844444
weight of 3 is -2.000000
not used!
accept
accept
weight of 0 is -1.155945
weight of 1 is 9.093783
weight of 2 is -1.844444
weight of 3 is -3.000000
not used!
accept
accept
accept
accept
deny
deny
deny
deny
accept
accept
accept
accept
weight of 0 is -0.651175
weight of 1 is 9.093805
weight of 2 is -1.488889
weight of 3 is -2.000000
used!
weight of 0 is -0.146405
weight of 1 is 9.093826
weight of 2 is -1.133333
weight of 3 is -1.000000
used!
weight of 0 is -0.651137
weight of 1 is 9.093805
weight of 2 is -1.311111
weight of 3 is -2.000000
not used!
deny
deny
deny
deny
weight of 0 is -1.155871
weight of 1 is 7.953158
weight of 2 is -1.666667
weight of 3 is -3.000000
not used!
deny
deny
weight of 0 is -0.651099
weight of 1 is 7.953215
weight of 2 is -1.488889
weight of 3 is -2.000000
used!
weight of 0 is -0.146328
weight of 1 is 7.953271
weight of 2 is -1.311111
weight of 3 is -1.000000
used!
weight of 0 is -0.651061
weight of 1 is 7.953257
weight of 2 is -1.311111
weight of 3 is -2.000000
not used!
accept
accept
accept
accept
weight of 0 is -0.146290
weight of 1 is 7.953278
weight of 2 is -0.955556
weight of 3 is -1.000000
used!
weight of 0 is 0.358482
weight of 1 is 7.953299
weight of 2 is -0.600000
weight of 3 is 0.000000
used!
weight of 0 is -0.146252
weight of 1 is 7.953278
weight of 2 is -0.777778
weight of 3 is -1.000000
not used!
weight of 0 is -0.650986
weight of 1 is 7.953257
weight of 2 is -1.133333
weight of 3 is -2.000000
not used!
deny
deny
deny
deny
deny
deny
weight of 0 is -0.146213
weight of 1 is 7.953313
weight of 2 is -0.955556
weight of 3 is -1.000000
used!
weight of 0 is 0.358559
weight of 1 is 7.953370
weight of 2 is -0.777778
weight of 3 is 0.000000
used!
weight of 0 is -0.146176
weight of 1 is 6.812794
weight of 2 is -0.777778
weight of 3 is -1.000000
not used!
deny
deny
weight of 0 is 0.358597
weight of 1 is 6.812815
weight of 2 is -0.422222
weight of 3 is 0.000000
used!
weight of 0 is 0.863371
weight of 1 is 6.812836
weight of 2 is -0.066667
weight of 3 is 1.000000
used!
weight of 0 is 0.358635
weight of 1 is 6.812815
weight of 2 is -0.244444
weight of 3 is 0.000000
not used!
accept
accept
accept
accept
weight of 0 is 0.863408
weight of 1 is 6.812829
weight of 2 is -0.244444
weight of 3 is 1.000000
used!
weight of 0 is 1.368182
weight of 1 is 6.812843
weight of 2 is -0.244444
weight of 3 is 2.000000
used!
weight of 0 is 0.863446
weight of 1 is 6.812822
weight of 2 is -0.600000
weight of 3 is 1.000000
not used!
weight of 0 is 0.358710
weight of 1 is 6.812808
weight of 2 is -0.600000
weight of 3 is 0.000000
not used!
weight of 0 is -0.160038
weight of 1 is 5.672253
weight of 2 is -0.600000
weight of 3 is -1.000000
not used!
deny
deny
deny
deny
deny
deny
weight of 0 is 0.344736
weight of 1 is 5.672310
weight of 2 is -0.244444
weight of 3 is 0.000000
used!
weight of 0 is 0.849511
weight of 1 is 5.672366
weight of 2 is 0.111111
weight of 3 is 1.000000
used!
weight of 0 is 0.344774
weight of 1 is 4.531868
weight of 2 is -0.066667
weight of 3 is 0.000000
not used!
accept
accept
weight of 0 is -0.159963
weight of 1 is 4.531847
weight of 2 is -0.422222
weight of 3 is -1.000000
not used!
accept
accept
weight of 0 is 0.344812
weight of 1 is 4.531861
weight of 2 is -0.422222
weight of 3 is 0.000000
used!
weight of 0 is 0.849587
weight of 1 is 4.531875
weight of 2 is -0.422222
weight of 3 is 1.000000
used!
accept
accept
weight of 0 is 1.354361
weight of 1 is 4.531896
weight of 2 is -0.244444
weight of 3 is 2.000000
used!
weight of 0 is 1.859136
weight of 1 is 4.531917
weight of 2 is -0.066667
weight of 3 is 3.000000
used!
accept
accept
accept
accept
weight of 0 is 1.354399
weight of 1 is 4.531861
weight of 2 is -0.066667
weight of 3 is 2.000000
not used!
weight of 0 is 0.849661
weight of 1 is 4.531840
weight of 2 is -0.244444
weight of 3 is 1.000000
not used!
accept
accept
accept
accept
weight of 0 is 0.344922
weight of 1 is 4.531818
weight of 2 is -0.600000
weight of 3 is 0.000000
not used!
accept
accept
accept
accept
accept
accept
weight of 0 is -0.159817
weight of 1 is 3.391431
weight of 2 is -0.600000
weight of 3 is -1.000000
not used!
deny
deny
weight of 0 is -0.664557
weight of 1 is 3.391409
weight of 2 is -0.777778
weight of 3 is -2.000000
not used!
weight of 0 is -1.169296
weight of 1 is 3.391388
weight of 2 is -1.133333
weight of 3 is -3.000000
not used!
deny
deny
weight of 0 is -1.674036
weight of 1 is 3.391374
weight of 2 is -1.133333
weight of 3 is -4.000000
not used!
deny
deny
weight of 0 is -1.169259
weight of 1 is 3.391445
weight of 2 is -1.133333
weight of 3 is -3.000000
used!
weight of 0 is -0.664481
weight of 1 is 3.391515
weight of 2 is -1.133333
weight of 3 is -2.000000
used!
deny
deny
weight of 0 is -0.159704
weight of 1 is 3.391536
weight of 2 is -0.955556
weight of 3 is -1.000000
used!
weight of 0 is 0.345074
weight of 1 is 3.391557
weight of 2 is -0.777778
weight of 3 is 0.000000
used!
accept
accept
weight of 0 is 0.849852
weight of 1 is 3.391579
weight of 2 is -0.422222
weight of 3 is 1.000000
used!
weight of 0 is 1.354630
weight of 1 is 3.391600
weight of 2 is -0.066667
weight of 3 is 2.000000
used!
weight of 0 is 0.835880
weight of 1 is 2.251226
weight of 2 is -0.600000
weight of 3 is 1.000000
not used!
accept
accept
accept
accept
weight of 0 is 0.331139
weight of 1 is 1.110859
weight of 2 is -0.777778
weight of 3 is 0.000000
not used!
accept
accept
weight of 0 is -0.173602
weight of 1 is 1.110838
weight of 2 is -1.133333
weight of 3 is -1.000000
not used!
deny
deny
weight of 0 is -0.678343
weight of 1 is 1.110824
weight of 2 is -1.133333
weight of 3 is -2.000000
not used!
deny
deny
weight of 0 is -1.183085
weight of 1 is 1.110803
weight of 2 is -1.311111
weight of 3 is -3.000000
not used!
deny
deny
weight of 0 is -1.687827
weight of 1 is 1.110782
weight of 2 is -1.666667
weight of 3 is -4.000000
not used!
deny
deny
weight of 0 is -1.183048
weight of 1 is 1.110796
weight of 2 is -1.666667
weight of 3 is -3.000000
used!
weight of 0 is -0.678268
weight of 1 is 1.110810
weight of 2 is -1.666667
weight of 3 is -2.000000
used!
deny
deny
weight of 0 is -0.173488
weight of 1 is 1.110831
weight of 2 is -1.488889
weight of 3 is -1.000000
used!
weight of 0 is 0.331291
weight of 1 is 1.110852
weight of 2 is -1.311111
weight of 3 is 0.000000
used!
accept
accept
weight of 0 is 0.836071
weight of 1 is 2.249638
weight of 2 is -0.955556
weight of 3 is 1.000000
used!
weight of 0 is 1.340851
weight of 1 is 3.388425
weight of 2 is -0.600000
weight of 3 is 2.000000
used!
accept
accept
accept
accept
weight of 0 is 0.836108
weight of 1 is 3.388368
weight of 2 is -0.777778
weight of 3 is 1.000000
not used!
accept
accept
accept
accept
accept
accept
weight of 0 is 0.331365
weight of 1 is 3.388347
weight of 2 is -1.133333
weight of 3 is 0.000000
not used!
weight of 0 is -0.173378
weight of 1 is 3.388333
weight of 2 is -1.133333
weight of 3 is -1.000000
not used!
weight of 0 is -0.678122
weight of 1 is 3.388312
weight of 2 is -1.311111
weight of 3 is -2.000000
not used!
deny
deny
deny
deny
accept
accept
accept
accept
weight of 0 is -0.173340
weight of 1 is 3.388368
weight of 2 is -1.311111
weight of 3 is -1.000000
used!
weight of 0 is 0.331443
weight of 1 is 3.388425
weight of 2 is -1.311111
weight of 3 is 0.000000
used!
weight of 0 is -0.173302
weight of 1 is 3.388368
weight of 2 is -1.666667
weight of 3 is -1.000000
not used!
weight of 0 is -0.678047
weight of 1 is 3.388354
weight of 2 is -1.666667
weight of 3 is -2.000000
not used!
weight of 0 is -1.182792
weight of 1 is 3.388333
weight of 2 is -1.844444
weight of 3 is -3.000000
not used!
deny
deny
weight of 0 is -1.687537
weight of 1 is 3.388312
weight of 2 is -2.200000
weight of 3 is -4.000000
not used!
deny
deny
deny
deny
deny
deny
weight of 0 is -1.168764
weight of 1 is 4.527070
weight of 2 is -1.488889
weight of 3 is -3.000000
used!
weight of 0 is -0.649991
weight of 1 is 5.665828
weight of 2 is -0.777778
weight of 3 is -2.000000
used!
accept
accept
accept
accept
weight of 0 is -0.131218
weight of 1 is 5.665840
weight of 2 is -0.600000
weight of 3 is -1.000000
used!
weight of 0 is 0.387555
weight of 1 is 5.665852
weight of 2 is -0.422222
weight of 3 is 0.000000
used!
weight of 0 is -0.117191
weight of 1 is 4.525745
weight of 2 is -0.422222
weight of 3 is -1.000000
not used!
accept
accept
weight of 0 is -0.621938
weight of 1 is 4.525724
weight of 2 is -0.600000
weight of 3 is -2.000000
not used!
deny
deny
deny
deny
weight of 0 is -1.126684
weight of 1 is 4.525710
weight of 2 is -0.600000
weight of 3 is -3.000000
not used!
deny
deny
weight of 0 is -0.621900
weight of 1 is 4.525731
weight of 2 is -0.422222
weight of 3 is -2.000000
used!
weight of 0 is -0.117115
weight of 1 is 4.525753
weight of 2 is -0.244444
weight of 3 is -1.000000
used!
deny
deny
weight of 0 is 0.387670
weight of 1 is 4.525774
weight of 2 is 0.111111
weight of 3 is 0.000000
used!
weight of 0 is 0.892454
weight of 1 is 4.525795
weight of 2 is 0.466667
weight of 3 is 1.000000
used!
accept
accept
weight of 0 is 1.397239
weight of 1 is 4.525809
weight of 2 is 0.466667
weight of 3 is 2.000000
used!
weight of 0 is 1.902025
weight of 1 is 4.525823
weight of 2 is 0.466667
weight of 3 is 3.000000
used!
accept
accept
weight of 0 is 2.406810
weight of 1 is 4.525844
weight of 2 is 0.644444
weight of 3 is 4.000000
used!
weight of 0 is 2.911595
weight of 1 is 4.525865
weight of 2 is 0.822222
weight of 3 is 5.000000
used!
accept
accept
weight of 0 is 2.406847
weight of 1 is 3.385837
weight of 2 is 0.644444
weight of 3 is 4.000000
not used!
accept
accept
weight of 0 is 1.902099
weight of 1 is 3.385816
weight of 2 is 0.288889
weight of 3 is 3.000000
not used!
weight of 0 is 1.397351
weight of 1 is 3.385801
weight of 2 is 0.288889
weight of 3 is 2.000000
not used!
weight of 0 is 0.892603
weight of 1 is 3.385780
weight of 2 is 0.111111
weight of 3 is 1.000000
not used!
accept
accept
accept
accept
accept
accept
weight of 0 is 0.387853
weight of 1 is 3.385724
weight of 2 is -0.244444
weight of 3 is 0.000000
not used!
accept
accept
weight of 0 is -0.116896
weight of 1 is 3.385710
weight of 2 is -0.244444
weight of 3 is -1.000000
not used!
deny
deny
deny
deny
accept
accept
accept
accept
weight of 0 is 0.387891
weight of 1 is 3.385724
weight of 2 is -0.244444
weight of 3 is 0.000000
used!
weight of 0 is 0.892679
weight of 1 is 3.385738
weight of 2 is -0.244444
weight of 3 is 1.000000
used!
weight of 0 is 0.387929
weight of 1 is 2.245820
weight of 2 is -0.422222
weight of 3 is 0.000000
not used!
accept
accept
weight of 0 is 0.892717
weight of 1 is 2.245841
weight of 2 is -0.244444
weight of 3 is 1.000000
used!
weight of 0 is 1.397505
weight of 1 is 2.245862
weight of 2 is -0.066667
weight of 3 is 2.000000
used!
accept
accept
accept
accept
weight of 0 is 0.892753
weight of 1 is 2.245841
weight of 2 is -0.422222
weight of 3 is 1.000000
not used!
accept
accept
weight of 0 is 0.388002
weight of 1 is 2.245827
weight of 2 is -0.422222
weight of 3 is 0.000000
not used!
accept
accept
weight of 0 is -0.116751
weight of 1 is 1.105948
weight of 2 is -0.600000
weight of 3 is -1.000000
not used!
deny
deny
deny
deny
weight of 0 is -0.621503
weight of 1 is 1.105913
weight of 2 is -0.600000
weight of 3 is -2.000000
not used!
deny
deny
weight of 0 is -0.116713
weight of 1 is 1.105927
weight of 2 is -0.600000
weight of 3 is -1.000000
used!
weight of 0 is 0.388077
weight of 1 is 1.105941
weight of 2 is -0.600000
weight of 3 is 0.000000
used!
weight of 0 is -0.116676
weight of 1 is 1.105920
weight of 2 is -0.777778
weight of 3 is -1.000000
not used!
deny
deny
weight of 0 is 0.388114
weight of 1 is 1.105941
weight of 2 is -0.600000
weight of 3 is 0.000000
used!
weight of 0 is 0.892904
weight of 1 is 1.105963
weight of 2 is -0.422222
weight of 3 is 1.000000
used!
weight of 0 is 0.388152
weight of 1 is 1.105941
weight of 2 is -0.777778
weight of 3 is 0.000000
not used!
accept
accept
weight of 0 is 0.892942
weight of 1 is 1.105963
weight of 2 is -0.422222
weight of 3 is 1.000000
used!
weight of 0 is 1.397732
weight of 1 is 1.105984
weight of 2 is -0.066667
weight of 3 is 2.000000
used!
weight of 0 is 0.892979
weight of 1 is 1.105970
weight of 2 is -0.066667
weight of 3 is 1.000000
not used!
accept
accept
weight of 0 is 0.388226
weight of 1 is 1.105948
weight of 2 is -0.244444
weight of 3 is 0.000000
not used!
weight of 0 is -0.116528
weight of 1 is 1.105927
weight of 2 is -0.600000
weight of 3 is -1.000000
not used!
deny
deny
weight of 0 is -0.621281
weight of 1 is 1.105913
weight of 2 is -0.600000
weight of 3 is -2.000000
not used!
deny
deny
deny
deny
weight of 0 is -0.116490
weight of 1 is 2.244289
weight of 2 is -0.422222
weight of 3 is -1.000000
used!
weight of 0 is 0.388302
weight of 1 is 3.382664
weight of 2 is -0.244444
weight of 3 is 0.000000
used!
accept
accept
accept
accept
weight of 0 is 0.893093
weight of 1 is 3.382685
weight of 2 is 0.111111
weight of 3 is 1.000000
used!
weight of 0 is 1.397885
weight of 1 is 3.382706
weight of 2 is 0.466667
weight of 3 is 2.000000
used!
weight of 0 is 0.893130
weight of 1 is 3.382685
weight of 2 is 0.111111
weight of 3 is 1.000000
not used!
accept
accept
accept
accept
weight of 0 is 0.388373
weight of 1 is 2.243067
weight of 2 is 0.111111
weight of 3 is 0.000000
not used!
weight of 0 is -0.116384
weight of 1 is 2.243046
weight of 2 is -0.066667
weight of 3 is -1.000000
not used!
weight of 0 is -0.621141
weight of 1 is 2.243025
weight of 2 is -0.422222
weight of 3 is -2.000000
not used!
deny
deny
weight of 0 is -1.125898
weight of 1 is 2.243011
weight of 2 is -0.422222
weight of 3 is -3.000000
not used!
deny
deny
weight of 0 is -1.630656
weight of 1 is 2.242990
weight of 2 is -0.600000
weight of 3 is -4.000000
not used!
deny
deny
weight of 0 is -1.125862
weight of 1 is 3.381309
weight of 2 is -0.422222
weight of 3 is -3.000000
used!
weight of 0 is -0.621068
weight of 1 is 4.519628
weight of 2 is -0.244444
weight of 3 is -2.000000
used!
weight of 0 is -1.125826
weight of 1 is 4.519593
weight of 2 is -0.244444
weight of 3 is -3.000000
not used!
deny
deny
weight of 0 is -0.621033
weight of 1 is 4.519614
weight of 2 is 0.111111
weight of 3 is -2.000000
used!
weight of 0 is -0.116239
weight of 1 is 4.519635
weight of 2 is 0.466667
weight of 3 is -1.000000
used!
deny
deny
weight of 0 is 0.388555
weight of 1 is 4.519649
weight of 2 is 0.466667
weight of 3 is 0.000000
used!
weight of 0 is 0.893349
weight of 1 is 4.519663
weight of 2 is 0.466667
weight of 3 is 1.000000
used!
accept
accept
weight of 0 is 1.398144
weight of 1 is 4.519684
weight of 2 is 0.644444
weight of 3 is 2.000000
used!
weight of 0 is 1.902938
weight of 1 is 4.519705
weight of 2 is 0.822222
weight of 3 is 3.000000
used!
accept
accept
accept
accept
weight of 0 is 2.407732
weight of 1 is 4.519727
weight of 2 is 1.177778
weight of 3 is 4.000000
used!
weight of 0 is 2.912527
weight of 1 is 4.519748
weight of 2 is 1.533333
weight of 3 is 5.000000
used!
weight of 0 is 2.407768
weight of 1 is 4.519691
weight of 2 is 1.355556
weight of 3 is 4.000000
not used!
accept
accept
weight of 0 is 1.903009
weight of 1 is 4.519677
weight of 2 is 1.355556
weight of 3 is 3.000000
not used!
accept
accept
accept
accept
accept
accept
weight of 0 is 1.398249
weight of 1 is 4.519656
weight of 2 is 1.000000
weight of 3 is 2.000000
not used!
accept
accept
accept
accept
accept
accept
accept
accept
weight of 0 is 0.893488
weight of 1 is 4.519642
weight of 2 is 1.000000
weight of 3 is 1.000000
not used!
accept
accept
accept
accept
accept
accept
weight of 0 is 0.388727
weight of 1 is 4.519586
weight of 2 is 0.822222
weight of 3 is 0.000000
not used!
weight of 0 is -0.116035
weight of 1 is 4.519564
weight of 2 is 0.466667
weight of 3 is -1.000000
not used!
deny
deny
weight of 0 is -0.620797
weight of 1 is 4.519550
weight of 2 is 0.466667
weight of 3 is -2.000000
not used!
deny
deny
weight of 0 is -1.125559
weight of 1 is 4.519529
weight of 2 is 0.288889
weight of 3 is -3.000000
not used!
deny
deny
weight of 0 is -0.620761
weight of 1 is 4.519550
weight of 2 is 0.466667
weight of 3 is -2.000000
used!
weight of 0 is -0.115963
weight of 1 is 4.519572
weight of 2 is 0.644444
weight of 3 is -1.000000
used!
accept
accept
accept
accept
weight of 0 is 0.388836
weight of 1 is 4.519593
weight of 2 is 1.000000
weight of 3 is 0.000000
used!
weight of 0 is 0.893635
weight of 1 is 4.519614
weight of 2 is 1.355556
weight of 3 is 1.000000
used!
accept
accept
accept
accept
weight of 0 is 0.388871
weight of 1 is 4.519593
weight of 2 is 1.000000
weight of 3 is 0.000000
not used!
accept
accept
weight of 0 is -0.115893
weight of 1 is 4.519579
weight of 2 is 1.000000
weight of 3 is -1.000000
not used!
weight of 0 is -0.620658
weight of 1 is 4.519557
weight of 2 is 0.822222
weight of 3 is -2.000000
not used!
deny
deny
weight of 0 is -1.125422
weight of 1 is 4.519536
weight of 2 is 0.466667
weight of 3 is -3.000000
not used!
deny
deny
deny
deny
weight of 0 is -0.620622
weight of 1 is 4.519557
weight of 2 is 0.644444
weight of 3 is -2.000000
used!
weight of 0 is -0.115821
weight of 1 is 4.519579
weight of 2 is 0.822222
weight of 3 is -1.000000
used!
accept
accept
accept
accept
weight of 0 is 0.388979
weight of 1 is 4.519600
weight of 2 is 1.177778
weight of 3 is 0.000000
used!
weight of 0 is 0.893780
weight of 1 is 4.519621
weight of 2 is 1.533333
weight of 3 is 1.000000
used!
weight of 0 is 0.389015
weight of 1 is 4.519564
weight of 2 is 1.533333
weight of 3 is 0.000000
not used!
weight of 0 is -0.115751
weight of 1 is 4.519543
weight of 2 is 1.355556
weight of 3 is -1.000000
not used!
deny
deny
weight of 0 is -0.620517
weight of 1 is 4.519522
weight of 2 is 1.000000
weight of 3 is -2.000000
not used!
deny
deny
weight of 0 is -1.139279
weight of 1 is 3.380318
weight of 2 is 1.000000
weight of 3 is -3.000000
not used!
accept
accept
accept
accept
weight of 0 is -0.634477
weight of 1 is 3.380374
weight of 2 is 1.177778
weight of 3 is -2.000000
used!
weight of 0 is -0.129675
weight of 1 is 3.380431
weight of 2 is 1.355556
weight of 3 is -1.000000
used!
weight of 0 is -0.634442
weight of 1 is 2.241283
weight of 2 is 1.355556
weight of 3 is -2.000000
not used!
weight of 0 is -1.153205
weight of 1 is 1.102041
weight of 2 is 1.177778
weight of 3 is -3.000000
not used!
deny
deny
deny
deny
deny
deny
deny
deny
weight of 0 is -0.648403
weight of 1 is 1.102097
weight of 2 is 1.177778
weight of 3 is -2.000000
used!
weight of 0 is -0.143599
weight of 1 is 1.102153
weight of 2 is 1.177778
weight of 3 is -1.000000
used!
accept
accept
accept
accept
weight of 0 is 0.361204
weight of 1 is 2.240022
weight of 2 is 1.355556
weight of 3 is 0.000000
used!
weight of 0 is 0.866007
weight of 1 is 3.377890
weight of 2 is 1.533333
weight of 3 is 1.000000
used!
accept
accept
accept
accept
accept
accept
accept
accept
weight of 0 is 0.361237
weight of 1 is 2.238688
weight of 2 is 1.355556
weight of 3 is 0.000000
not used!
accept
accept
accept
accept
accept
accept
accept
accept
accept
accept
accept
accept
accept
accept
accept
accept
accept
accept
accept
accept
accept
accept
accept
accept
accept
accept
accept
accept
accept
accept
accept
accept
weight of 0 is -0.143538
weight of 1 is 1.099676
weight of 2 is 1.000000
weight of 3 is -1.000000
not used!
weight of 0 is -0.648313
weight of 1 is 1.099662
weight of 2 is 1.000000
weight of 3 is -2.000000
not used!
deny
deny
weight of 0 is -1.153088
weight of 1 is 1.099641
weight of 2 is 0.822222
weight of 3 is -3.000000
not used!
deny
deny
weight of 0 is -1.657864
weight of 1 is 1.099620
weight of 2 is 0.466667
weight of 3 is -4.000000
not used!
deny
deny
deny
deny
weight of 0 is -2.162640
weight of 1 is 1.099605
weight of 2 is 0.466667
weight of 3 is -5.000000
not used!
deny
deny
weight of 0 is -1.643853
weight of 1 is 1.099678
weight of 2 is 0.822222
weight of 3 is -4.000000
used!
weight of 0 is -1.125065
weight of 1 is 1.099751
weight of 2 is 1.177778
weight of 3 is -3.000000
used!
weight of 0 is -1.629842
weight of 1 is 1.099730
weight of 2 is 1.000000
weight of 3 is -4.000000
not used!
deny
deny
weight of 0 is -1.125032
weight of 1 is 2.237455
weight of 2 is 1.000000
weight of 3 is -3.000000
used!
weight of 0 is -0.620222
weight of 1 is 3.375180
weight of 2 is 1.000000
weight of 3 is -2.000000
used!
accept
accept
weight of 0 is -0.101434
weight of 1 is 4.512918
weight of 2 is 1.000000
weight of 3 is -1.000000
used!
weight of 0 is 0.417353
weight of 1 is 5.650657
weight of 2 is 1.000000
weight of 3 is 0.000000
used!
weight of 0 is -0.087423
weight of 1 is 5.650643
weight of 2 is 0.644444
weight of 3 is -1.000000
not used!
accept
accept
weight of 0 is 0.417387
weight of 1 is 6.788361
weight of 2 is 0.822222
weight of 3 is 0.000000
used!
weight of 0 is 0.922197
weight of 1 is 7.926079
weight of 2 is 1.000000
weight of 3 is 1.000000
used!
accept
accept
accept
accept
accept
accept
accept
accept
weight of 0 is 0.417418
weight of 1 is 6.787271
weight of 2 is 0.822222
weight of 3 is 0.000000
not used!
accept
accept
weight of 0 is -0.087361
weight of 1 is 6.787250
weight of 2 is 0.466667
weight of 3 is -1.000000
not used!
accept
accept
accept
accept
accept
accept
accept
accept
deny
deny
weight of 0 is -0.592142
weight of 1 is 5.648537
weight of 2 is 0.288889
weight of 3 is -2.000000
not used!
deny
deny
weight of 0 is -0.087328
weight of 1 is 5.648551
weight of 2 is 0.288889
weight of 3 is -1.000000
used!
weight of 0 is 0.417485
weight of 1 is 5.648565
weight of 2 is 0.288889
weight of 3 is 0.000000
used!
accept
accept
weight of 0 is -0.087296
weight of 1 is 4.509816
weight of 2 is -0.066667
weight of 3 is -1.000000
not used!
accept
accept
accept
accept
deny
deny
accept
accept
accept
accept
weight of 0 is -0.606068
weight of 1 is 3.371103
weight of 2 is -0.066667
weight of 3 is -2.000000
not used!
accept
accept
deny
deny
accept
accept
accept
accept
accept
accept
weight of 0 is -1.110852
weight of 1 is 2.232424
weight of 2 is -0.066667
weight of 3 is -3.000000
not used!
deny
deny
deny
deny
weight of 0 is -1.615638
weight of 1 is 2.232403
weight of 2 is -0.422222
weight of 3 is -4.000000
not used!
deny
deny
weight of 0 is -1.110821
weight of 1 is 2.232460
weight of 2 is -0.422222
weight of 3 is -3.000000
used!
weight of 0 is -0.606004
weight of 1 is 2.232516
weight of 2 is -0.422222
weight of 3 is -2.000000
used!
weight of 0 is -1.110790
weight of 1 is 2.232502
weight of 2 is -0.422222
weight of 3 is -3.000000
not used!
deny
deny
weight of 0 is -0.605973
weight of 1 is 2.232523
weight of 2 is -0.244444
weight of 3 is -2.000000
used!
weight of 0 is -0.101155
weight of 1 is 2.232544
weight of 2 is -0.066667
weight of 3 is -1.000000
used!
weight of 0 is -0.619929
weight of 1 is 1.093922
weight of 2 is -0.066667
weight of 3 is -2.000000
not used!
deny
deny
weight of 0 is -0.115112
weight of 1 is 1.093943
weight of 2 is 0.288889
weight of 3 is -1.000000
used!
weight of 0 is 0.389705
weight of 1 is 1.093965
weight of 2 is 0.644444
weight of 3 is 0.000000
used!
accept
accept
accept
accept
weight of 0 is -0.115081
weight of 1 is 1.093908
weight of 2 is 0.466667
weight of 3 is -1.000000
not used!
accept
accept
weight of 0 is -0.619869
weight of 1 is 1.093852
weight of 2 is 0.111111
weight of 3 is -2.000000
not used!
deny
deny
deny
deny
weight of 0 is -1.124657
weight of 1 is -0.044681
weight of 2 is -0.244444
weight of 3 is -3.000000
not used!
deny
deny
deny
deny
deny
deny
weight of 0 is -1.629446
weight of 1 is -1.183190
weight of 2 is -0.244444
weight of 3 is -4.000000
not used!
weight of 0 is -2.134235
weight of 1 is -1.183211
weight of 2 is -0.422222
weight of 3 is -5.000000
not used!
deny
deny
deny
deny
weight of 0 is -2.639025
weight of 1 is -1.183232
weight of 2 is -0.777778
weight of 3 is -6.000000
not used!
deny
deny
deny
deny
deny
deny
deny
deny
weight of 0 is -2.146724
weight of 1 is 0.976657
weight of 2 is -0.777778
weight of 3 is -5.000000
used!
weight of 0 is -1.654422
weight of 1 is 3.136546
weight of 2 is -0.777778
weight of 3 is -4.000000
used!
deny
deny
deny
deny
accept
accept
weight of 0 is -1.162121
weight of 1 is 5.296465
weight of 2 is -0.777778
weight of 3 is -3.000000
used!
weight of 0 is -0.669819
weight of 1 is 7.456385
weight of 2 is -0.777778
weight of 3 is -2.000000
used!
accept
accept
accept
accept
accept
accept
accept
accept
deny
deny
deny
deny
weight of 0 is -1.174614
weight of 1 is 7.456371
weight of 2 is -0.777778
weight of 3 is -3.000000
not used!
deny
deny
weight of 0 is -0.682312
weight of 1 is 7.456427
weight of 2 is -0.777778
weight of 3 is -2.000000
used!
weight of 0 is -0.190011
weight of 1 is 7.456484
weight of 2 is -0.777778
weight of 3 is -1.000000
used!
deny
deny
weight of 0 is 0.302291
weight of 1 is 7.456503
weight of 2 is -0.777778
weight of 3 is 0.000000
used!
weight of 0 is 0.794592
weight of 1 is 7.456521
weight of 2 is -0.777778
weight of 3 is 1.000000
used!
weight of 0 is 0.289797
weight of 1 is 7.456465
weight of 2 is -0.955556
weight of 3 is 0.000000
not used!
accept
accept
weight of 0 is 0.782098
weight of 1 is 7.456484
weight of 2 is -0.955556
weight of 3 is 1.000000
used!
weight of 0 is 1.274400
weight of 1 is 7.456503
weight of 2 is -0.955556
weight of 3 is 2.000000
used!
weight of 0 is 0.769604
weight of 1 is 7.456481
weight of 2 is -1.311111
weight of 3 is 1.000000
not used!
accept
accept
weight of 0 is 0.264808
weight of 1 is 7.456467
weight of 2 is -1.311111
weight of 3 is 0.000000
not used!
accept
accept
weight of 0 is -0.239988
weight of 1 is 7.456446
weight of 2 is -1.488889
weight of 3 is -1.000000
not used!
weight of 0 is -0.744785
weight of 1 is 7.456425
weight of 2 is -1.844444
weight of 3 is -2.000000
not used!
weight of 0 is -1.249581
weight of 1 is 7.456411
weight of 2 is -1.844444
weight of 3 is -3.000000
[...]
deny
deny
deny
deny
deny
deny
deny
deny
deny
deny
deny
deny
deny
deny
deny
deny
deny
deny
deny
deny
deny
deny
deny
deny
deny
deny
deny
deny
deny
deny
deny
deny
deny
deny
deny
deny
deny
deny
deny
deny
deny
deny
deny
deny
deny
deny
deny
deny
deny
deny
deny
deny
deny
deny
deny
deny
deny
deny
deny
deny
deny
deny
deny
deny
deny
deny
deny
deny
deny
deny
deny
deny
deny
deny
deny
deny
deny
deny
deny
deny
deny
deny
deny
deny
deny
deny
deny
deny
deny
deny
deny
deny
deny
deny
deny
deny
deny
deny
deny
deny
deny
deny
deny
deny
deny
deny
deny
deny
deny
deny
deny
deny
deny
deny
deny
deny
deny
deny
deny
deny
deny
deny
deny
deny
deny
deny
deny
deny
deny
deny
deny
deny
deny
deny
deny
deny
deny
deny
deny
deny
deny
deny
deny
deny
deny
deny
deny
deny
deny
deny
deny
deny
deny
deny
deny
deny
deny
deny
deny
deny
deny
deny
deny
deny
deny
deny
deny
deny
deny
deny
deny
deny
deny
deny
deny
deny
deny
deny
deny
deny
deny
deny
deny
deny
deny
deny
deny
deny
deny
deny
deny
deny
deny
deny
deny
deny
deny
deny
deny
deny
deny
deny
deny
deny
deny
deny
deny
deny
deny
deny
deny
deny
deny
deny
deny
deny
deny
deny
deny
deny
deny
deny
deny
deny
deny
deny
deny
deny
deny
deny
deny
deny
deny
deny
deny
deny
deny
deny
deny
deny
deny
deny
deny
deny
deny
deny
deny
deny
deny
deny
deny
deny
deny
deny
deny
deny
deny
deny
deny
deny
deny
deny
deny
deny
deny
deny
deny
deny
deny
deny
deny
deny
deny
deny
deny
deny
deny
deny
deny
deny
deny
deny
deny
deny
deny
deny
deny
deny
deny
deny
deny
deny
deny
deny
deny
deny
deny
deny
deny
deny
deny
deny
deny
deny
deny
deny
deny
deny
deny
deny
deny
deny
deny
deny
deny
deny
deny
deny
deny
deny
deny
deny
deny
deny
deny
deny
deny
deny
deny
deny
deny
deny
deny
deny
deny
deny
deny
deny
deny
deny
deny
deny
deny
deny
deny
deny
deny
deny
deny
deny
deny
deny
deny
deny
deny
deny
deny
deny
deny
deny
deny
deny
deny
deny
deny
deny
deny
deny
deny
deny
deny
deny
deny
deny
deny
deny
deny
deny
deny
deny
deny
deny
deny
deny
deny
deny
deny
deny
deny
deny
deny
deny
deny
deny
deny
deny
deny
deny
deny
deny
deny
deny
deny
deny
deny
deny
deny
deny
deny
deny
deny
deny
deny
deny
deny
deny
deny
deny
deny
deny
deny
deny
deny
deny
deny
deny
deny
deny
deny
deny
deny
deny
deny
deny
deny
deny
deny
deny
deny
deny
deny
deny
deny
deny
deny
deny
deny
deny
deny
deny
deny
deny
deny
deny
deny
deny
deny
deny
deny
deny
deny
deny
deny
deny
deny
deny
deny
deny
deny
deny
deny
deny
deny
deny
deny
deny
deny
deny
deny
deny
deny
deny
deny
deny
deny
deny
deny
deny
deny
deny
deny
deny
deny
deny
deny
deny
deny
deny
deny
deny
deny
deny
deny
deny
deny
deny
deny
deny
deny
deny
deny
deny
deny
deny
deny
deny
deny
deny
deny
deny
deny
deny
deny
deny
deny
deny
deny
deny
deny
deny
deny
deny
deny
deny
deny
deny
deny
deny
deny
deny
deny
deny
deny
deny
deny
deny
deny
deny
deny
deny
deny
deny
deny
deny
deny
deny
deny
deny
deny
deny
deny
deny
deny
deny
deny
deny
deny
deny
deny
deny
deny
deny
deny
deny
deny
deny
deny
deny
deny
deny
deny
deny
deny
deny
deny
deny
deny
deny
deny
deny
deny
deny
deny
deny
deny
deny
deny
deny
deny
deny
deny
deny
deny
deny
deny
deny
deny
deny
deny
deny
deny
deny
deny
deny
deny
deny
deny
deny
deny
deny
deny
deny
deny
deny
deny
deny
deny
deny
deny
deny
deny
deny
deny
deny
deny
deny
deny
deny
deny
deny
deny
deny
deny
deny
deny
deny
deny
deny
deny
deny
deny
deny
deny
deny
deny
deny
deny
deny
deny
deny
deny
deny
deny
deny
deny
deny
deny
deny
deny
deny
deny
deny
deny
deny
deny
deny
deny
deny
deny
deny
deny
deny
deny
deny
deny
deny
deny
deny
deny
deny
deny
deny
deny
deny
deny
deny
deny
deny
deny
deny
deny
deny
deny
deny
deny
deny
deny
deny
deny
deny
deny
deny
deny
deny
deny
deny
deny
deny
deny
deny
deny
deny
deny
deny
deny
deny
deny
deny
deny
deny
deny
deny
deny
deny
deny
deny
deny
deny
deny
deny
deny
deny
deny
deny
deny
deny
deny
deny
deny
deny
deny
deny
deny
deny
deny
deny
deny
deny
deny
deny
deny
deny
deny
deny
deny
deny
deny
deny
deny
deny
deny
deny
deny
deny
deny
deny
deny
deny
deny
deny
deny
deny
deny
deny
deny
deny
deny
deny
deny
deny
deny
deny
deny
deny
deny
deny
deny
deny
deny
deny
deny
deny
deny
deny
deny
deny
deny
deny
deny
deny
deny
deny
deny
deny
deny
deny
deny
deny
deny
deny
deny
deny
deny
deny
deny
deny
deny
deny
deny
deny
deny
deny
deny
deny
deny
deny
deny
deny
deny
deny
deny
deny
deny
deny
deny
deny
deny
deny
deny
deny
deny
deny
deny
deny
deny
deny
deny
deny
deny
deny
deny
deny
deny
deny
deny
deny
deny
deny
deny
deny
deny
deny
deny
deny
deny
deny
deny
deny
deny
deny
deny
deny
deny
deny
deny
deny
deny
deny
deny
deny
deny
deny
deny
deny
deny
deny
deny
deny
deny
deny
deny
deny
deny
deny
deny
deny
deny
deny
deny
deny
deny
deny
deny
deny
deny
deny
deny
deny
deny
deny
deny
deny
deny
deny
deny
deny
deny
deny
deny
deny
deny
deny
deny
deny
deny
deny
deny
deny
deny
deny
deny
deny
deny
deny
deny
deny
deny
deny
deny
deny
deny
deny
deny
deny
deny
deny
deny
deny
deny
deny
deny
deny
deny
deny
deny
deny
deny
deny
deny
deny
deny
deny
deny
deny
deny
deny
deny
deny
deny
deny
deny
deny
deny
deny
deny
deny
deny
deny
deny
deny
deny
deny
deny
deny
deny
deny
deny
deny
deny
deny
deny
deny
deny
deny
deny
deny
deny
deny
deny
deny
deny
deny
deny
deny
deny
deny
deny
deny
deny
deny
deny
deny
deny
deny
deny
deny
deny
deny
deny
deny
deny
deny
deny
deny
deny
deny
deny
deny
deny
deny
deny
deny
deny
deny
deny
deny
deny
deny
deny
deny
deny
deny
deny
deny
deny
deny
deny
deny
deny
deny
deny
deny
deny
deny
deny
deny
deny
deny
deny
deny
deny
deny
deny
deny
deny
deny
deny
deny
deny
deny
deny
deny
deny
deny
deny
deny
deny
deny
deny
deny
deny
deny
deny
deny
deny
deny
deny
deny
deny
deny
deny
deny
deny
deny
deny
deny
deny
deny
deny
deny
deny
deny
deny
deny
deny
deny
deny
deny
deny
deny
deny
deny
deny
deny
deny
deny
deny
deny
deny
deny
deny
deny
deny
deny
deny
deny
deny
deny
deny
deny
deny
deny
deny
deny
deny
deny
deny
deny
deny
deny
deny
deny
deny
deny
deny
deny
deny
deny
deny
deny
deny
deny
deny
deny
deny
deny
deny
deny
deny
deny
deny
deny
deny
deny
deny
deny
deny
deny
deny
deny
deny
deny
deny
deny
deny
deny
deny
deny
deny
deny
deny
deny
deny
deny
deny
deny
deny
deny
deny
deny
deny
deny
deny
deny
deny
deny
deny
deny
deny
deny
deny
deny
deny
deny
deny
deny
deny
deny
deny
deny
deny
deny
deny
deny
deny
deny
deny
deny
deny
deny
deny
deny
deny
deny
deny
deny
deny
deny
deny
deny
deny
deny
deny
deny
deny
deny
deny
deny
deny
deny
deny
deny
deny
deny
deny
deny
deny
deny
deny
deny
deny
deny
deny
deny
deny
deny
deny
deny
deny
deny
deny
deny
deny
deny
deny
deny
deny
deny
deny
deny
deny
deny
deny
deny
deny
deny
deny
deny
deny
deny
deny
deny
deny
deny
deny
deny
deny
deny
deny
deny
deny
deny
deny
deny
deny
deny
deny
deny
deny
deny
deny
deny
deny
deny
deny
deny
deny
deny
deny
deny
deny
deny
deny
deny
deny
deny
deny
deny
deny
deny
deny
deny
deny
deny
deny
deny
deny
deny
deny
deny
deny
deny
deny
deny
deny
deny
deny
deny
deny
deny
deny
deny
deny
deny
deny
deny
deny
deny
deny
deny
deny
deny
deny
deny
deny
deny
deny
deny
deny
deny
deny
deny
deny
deny
deny
deny
deny
deny
deny
deny
deny
deny
deny
deny
deny
deny
deny
deny
deny
deny
deny
deny
deny
deny
deny
deny
deny
deny
deny
deny
deny
deny
deny
deny
deny
deny
deny
deny
deny
deny
deny
deny
deny
deny
deny
deny
deny
deny
deny
deny
deny
deny
deny
deny
deny
deny
deny
deny
deny
deny
deny
deny
deny
deny
deny
deny
deny
deny
deny
deny
deny
deny
deny
deny
deny
deny
deny
deny
deny
deny
deny
deny
deny
deny
deny
deny
deny
deny
deny
deny
deny
deny
deny
deny
deny
deny
deny
deny
deny
deny
deny
deny
deny
deny
deny
deny
deny
deny
deny
deny
deny
deny
deny
deny
deny
deny
deny
deny
deny
deny
deny
deny
deny
deny
deny
deny
deny
deny
deny
deny
deny
deny
deny
deny
deny
deny
deny
deny
deny
deny
deny
deny
deny
deny
deny
deny
deny
deny
deny
deny
deny
deny
deny
deny
deny
deny
deny
deny
deny
deny
deny
deny
deny
deny
deny
deny
deny
deny
deny
deny
deny
deny
deny
deny
deny
deny
deny
deny
deny
deny
deny
deny
deny
deny
deny
deny
deny
deny
deny
deny
deny
deny
deny
deny
deny
deny
deny
deny
deny
deny
deny
deny
deny
deny
deny
deny
deny
deny
deny
deny
deny
deny
deny
deny
deny
deny
deny
deny
deny
deny
deny
deny
deny
deny
deny
deny
deny
deny
deny
deny
deny
deny
deny
deny
deny
deny
deny
deny
deny
deny
deny
deny
deny
deny
deny
deny
deny
deny
deny
deny
deny
deny
deny
deny
deny
deny
deny
deny
deny
deny
deny
deny
deny
deny
deny
deny
deny
deny
deny
deny
deny
deny
deny
deny
deny
deny
deny
deny
deny
deny
deny
deny
deny
deny
deny
deny
deny
deny
deny
deny
deny
deny
deny
deny
deny
deny
deny
deny
deny
deny
deny
deny
deny
deny
deny
deny
deny
deny
deny
deny
deny
deny
deny
deny
deny
deny
deny
deny
deny
deny
deny
deny
deny
deny
deny
deny
deny
deny
deny
deny
deny
deny
deny
deny
deny
deny
deny
deny
deny
deny
deny
deny
deny
deny
deny
deny
deny
deny
deny
deny
deny
deny
deny
deny
deny
deny
deny
deny
deny
deny
deny
deny
deny
deny
deny
deny
deny
deny
deny
deny
deny
deny
deny
deny
deny
deny
deny
deny
deny
deny
deny
deny
deny
deny
deny
deny
deny
deny
deny
deny
deny
deny
deny
deny
deny
deny
deny
deny
deny
deny
deny
deny
deny
deny
deny
deny
deny
deny
deny
deny
deny
deny
deny
deny
deny
deny
deny
deny
deny
deny
deny
deny
deny
deny
deny
deny
deny
deny
deny
deny
deny
deny
deny
deny
deny
deny
deny
deny
deny
deny
deny
deny
deny
deny
deny
deny
deny
deny
deny
deny
deny
deny
deny
deny
deny
deny
deny
deny
deny
deny
deny
deny
deny
deny
deny
deny
deny
deny
deny
deny
deny
deny
deny
deny
deny
deny
deny
deny
deny
deny
deny
deny
deny
deny
deny
deny
deny
deny
deny
deny
deny
deny
deny
deny
deny
deny
deny
deny
deny
deny
deny
deny
deny
deny
deny
deny
deny
deny
deny
deny
deny
deny
deny
deny
deny
deny
deny
deny
deny
deny
deny
deny
deny
deny
deny
deny
deny
deny
deny
deny
deny
deny
deny
deny
deny
deny
deny
deny
deny
deny
deny
deny
deny
deny
deny
deny
deny
deny
deny
deny
deny
deny
deny
deny
deny
deny
deny
deny
deny
deny
deny
deny
deny
deny
deny
deny
deny
deny
deny
deny
deny
deny
deny
deny
deny
deny
deny
deny
deny
deny
deny
deny
deny
deny
deny
deny
deny
deny
deny
deny
deny
deny
deny
deny
deny
deny
deny
deny
deny
deny
deny
deny
deny
deny
deny
deny
deny
deny
deny
deny
deny
deny
deny
deny
deny
deny
deny
deny
deny
deny
deny
deny
deny
deny
deny
deny
deny
deny
deny
deny
deny
deny
deny
deny
deny
deny
deny
deny
deny
deny
deny
deny
deny
deny
deny
deny
deny
deny
deny
deny
deny
deny
deny
deny
deny
deny
deny
deny
deny
deny
deny
deny
deny
deny
deny
deny
deny
deny
deny
deny
deny
deny
deny
deny
deny
deny
deny
deny
deny
deny
deny
deny
deny
deny
deny
deny
deny
deny
deny
deny
deny
deny
deny
deny
deny
deny
deny
deny
deny
deny
deny
deny
deny
deny
deny
deny
deny
deny
deny
deny
deny
deny
deny
deny
deny
deny
deny
deny
deny
deny
deny
deny
deny
deny
deny
deny
deny
deny
deny
deny
deny
deny
deny
deny
deny
deny
deny
deny
deny
deny
deny
deny
deny
deny
deny
deny
deny
deny
deny
deny
deny
deny
deny
deny
deny
deny
deny
deny
deny
deny
deny
deny
deny
deny
deny
deny
deny
deny
deny
deny
deny
deny
deny
deny
deny
deny
deny
deny
deny
deny
deny
deny
deny
deny
deny
deny
deny
deny
deny
deny
deny
deny
deny
deny
deny
deny
deny
deny
deny
deny
deny
deny
deny
deny
deny
deny
deny
deny
deny
deny
deny
deny
deny
deny
deny
deny
deny
deny
deny
deny
deny
deny
deny
deny
deny
deny
deny
deny
deny
deny
deny
deny
deny
deny
deny
deny
deny
deny
deny
deny
deny
deny
deny
deny
deny
deny
deny
deny
deny
deny
deny
deny
deny
deny
deny
deny
deny
deny
deny
deny
deny
deny
deny
deny
deny
deny
deny
deny
deny
deny
deny
deny
deny
deny
deny
deny
deny
deny
deny
deny
deny
deny
deny
deny
deny
deny
deny
deny
deny
deny
deny
deny
deny
deny
deny
deny
deny
deny
deny
deny
deny
deny
deny
deny
deny
deny
deny
deny
deny
deny
deny
deny
deny
deny
deny
deny
deny
deny
deny
deny
deny
deny
deny
deny
deny
deny
deny
deny
deny
deny
deny
deny
deny
deny
deny
deny
deny
deny
deny
deny
deny
deny
deny
deny
deny
deny
deny
deny
deny
deny
deny
deny
deny
deny
deny
deny
deny
deny
deny
deny
deny
deny
deny
deny
deny
deny
deny
deny
deny
deny
deny
deny
deny
deny
deny
deny
deny
deny
deny
deny
deny
deny
deny
deny
deny
deny
deny
deny
deny
deny
deny
deny
deny
deny
deny
deny
deny
deny
deny
deny
deny
deny
deny
deny
deny
deny
deny
deny
deny
deny
deny
deny
deny
deny
deny
deny
deny
deny
deny
deny
deny
deny
deny
deny
deny
deny
deny
deny
deny
deny
deny
deny
deny
deny
deny
deny
deny
deny
deny
deny
deny
deny
deny
deny
deny
deny
deny
deny
deny
deny
deny
deny
deny
deny
deny
deny
deny
deny
deny
deny
deny
deny
deny
deny
deny
deny
deny
deny
deny
deny
deny
deny
deny
deny
deny
deny
deny
deny
deny
deny
deny
deny
deny
deny
deny
deny
deny
deny
deny
deny
deny
deny
deny
deny
deny
deny
deny
deny
deny
deny
deny
deny
deny
deny
deny
deny
deny
deny
deny
deny
deny
deny
deny
deny
deny
deny
deny
deny
deny
deny
deny
deny
deny
deny
deny
deny
deny
deny
deny
deny
deny
deny
deny
deny
deny
deny
deny
deny
deny
deny
deny
deny
deny
deny
deny
deny
deny
deny
deny
deny
deny
deny
deny
deny
deny
deny
deny
deny
deny
deny
deny
deny
deny
deny
deny
deny
deny
deny
deny
deny
deny
deny
deny
deny
deny
deny
deny
deny
deny
deny
deny
deny
deny
deny
deny
deny
deny
deny
deny
deny
deny
deny
deny
deny
deny
deny
deny
deny
deny
deny
deny
deny
deny
deny
deny
deny
deny
deny
deny
deny
deny
deny
deny
deny
deny
deny
deny
deny
deny
deny
deny
deny
deny
deny
deny
deny
deny
deny
deny
deny
deny
deny
deny
deny
deny
deny
deny
deny
deny
deny
deny
deny
deny
deny
deny
deny
deny
deny
deny
deny
deny
deny
deny
deny
deny
deny
deny
deny
deny
deny
deny
deny
deny
deny
deny
deny
deny
deny
deny
deny
deny
deny
deny
deny
deny
deny
deny
deny
deny
deny
deny
deny
deny
deny
deny
deny
deny
deny
deny
deny
deny
deny
deny
deny
deny
deny
deny
deny
deny
deny
deny
deny
deny
deny
deny
deny
deny
deny
deny
deny
deny
deny
deny
deny
deny
deny
deny
deny
deny
deny
deny
deny
deny
deny
deny
deny
deny
deny
deny
deny
deny
deny
deny
deny
deny
deny
deny
deny
deny
deny
deny
deny
deny
deny
deny
deny
deny
deny
deny
deny
deny
deny
deny
deny
deny
deny
deny
deny
deny
deny
deny
deny
deny
deny
deny
deny
deny
deny
deny
deny
deny
deny
deny
deny
deny
deny
deny
deny
deny
deny
deny
deny
deny
deny
deny
deny
deny
deny
deny
deny
deny
deny
deny
deny
deny
deny
deny
deny
deny
deny
deny
deny
deny
deny
deny
deny
deny
deny
deny
deny
deny
deny
deny
deny
deny
deny
deny
deny
deny
deny
deny
deny
deny
deny
deny
deny
deny
deny
deny
deny
deny
deny
deny
deny
deny
deny
deny
deny
deny
deny
deny
deny
deny
deny
deny
deny
deny
deny
deny
deny
deny
deny
deny
deny
deny
deny
deny
deny
deny
deny
deny
deny
deny
deny
deny
deny
deny
deny
deny
deny
deny
deny
deny
deny
deny
deny
deny
deny
deny
deny
deny
deny
deny
deny
deny
deny
deny
deny
deny
deny
deny
deny
deny
deny
deny
deny
deny
deny
deny
deny
deny
deny
deny
deny
deny
deny
deny
deny
deny
deny
deny
deny
deny
deny
deny
deny
deny
deny
deny
deny
deny
deny
deny
deny
deny
deny
deny
deny
deny
deny
deny
deny
deny
deny
deny
deny
deny
deny
deny
deny
deny
deny
deny
deny
deny
deny
deny
deny
deny
deny
deny
deny
deny
deny
deny
deny
deny
deny
deny
deny
deny
deny
deny
deny
deny
deny
deny
deny
deny
deny
deny
deny
deny
deny
deny
deny
deny
deny
deny
deny
deny
deny
deny
deny
deny
deny
deny
deny
deny
deny
deny
deny
deny
deny
deny
deny
deny
deny
deny
deny
deny
deny
deny
deny
deny
deny
deny
deny
deny
deny
deny
deny
deny
deny
deny
deny
deny
deny
deny
deny
deny
deny
deny
deny
deny
deny
deny
deny
deny
deny
deny
deny
deny
deny
deny
deny
deny
deny
deny
deny
deny
deny
deny
deny
deny
deny
deny
deny
deny
deny
deny
deny
deny
deny
deny
deny
deny
deny
deny
deny
deny
deny
deny
deny
deny
deny
deny
deny
deny
deny
deny
deny
deny
deny
deny
deny
deny
deny
deny
deny
deny
deny
deny
deny
deny
deny
deny
deny
deny
deny
deny
deny
deny
deny
deny
deny
deny
deny
deny
deny
deny
deny
deny
deny
deny
deny
deny
deny
deny
deny
deny
deny
deny
deny
deny
deny
deny
deny
deny
deny
deny
deny
deny
deny
deny
deny
deny
deny
deny
deny
deny
deny
deny
deny
deny
deny
deny
deny
deny
deny
deny
deny
deny
deny
deny
deny
deny
deny
deny
deny
deny
deny
deny
deny
deny
deny
deny
deny
deny
deny
deny
deny
deny
deny
deny
deny
deny
deny
deny
deny
deny
deny
deny
deny
deny
deny
deny
deny
deny
deny
deny
deny
deny
deny
deny
deny
deny
deny
deny
deny
deny
deny
deny
deny
deny
deny
deny
deny
deny
deny
deny
deny
deny
deny
deny
deny
deny
deny
deny
deny
deny
deny
deny
deny
deny
deny
deny
deny
deny
deny
deny
deny
deny
deny
deny
deny
deny
deny
deny
deny
deny
deny
deny
deny
deny
deny
deny
deny
deny
deny
deny
deny
deny
deny
deny
deny
deny
deny
deny
deny
deny
deny
deny
deny
deny
deny
deny
deny
deny
deny
deny
deny
deny
deny
deny
deny
deny
deny
deny
deny
deny
deny
deny
deny
deny
deny
deny
deny
deny
deny
deny
deny
deny
deny
deny
deny
deny
deny
deny
deny
deny
deny
deny
deny
deny
deny
deny
deny
deny
deny
deny
deny
deny
deny
deny
deny
deny
deny
deny
deny
deny
deny
deny
deny
deny
deny
deny
deny
deny
deny
deny
deny
deny
deny
deny
deny
deny
deny
deny
deny
deny
deny
deny
deny
deny
deny
deny
deny
deny
deny
deny
deny
deny
deny
deny
deny
deny
deny
deny
deny
deny
deny
deny
deny
deny
deny
deny
deny
deny
deny
deny
deny
deny
deny
deny
deny
deny
deny
deny
deny
deny
deny
deny
deny
deny
deny
deny
deny
deny
deny
deny
deny
deny
deny
deny
deny
deny
deny
deny
deny
deny
deny
deny
deny
deny
deny
deny
deny
deny
deny
deny
deny
deny
deny
deny
deny
deny
deny
deny
deny
deny
deny
deny
deny
deny
deny
deny
deny
deny
deny
deny
deny
deny
deny
deny
deny
deny
deny
deny
deny
deny
deny
deny
deny
deny
deny
deny
deny
deny
deny
deny
deny
deny
deny
deny
deny
deny
deny
deny
deny
deny
deny
deny
deny
deny
deny
deny
deny
deny
deny
deny
deny
deny
deny
deny
deny
deny
deny
deny
deny
deny
deny
deny
deny
deny
deny
deny
deny
deny
deny
deny
deny
deny
deny
deny
deny
deny
deny
deny
deny
deny
deny
deny
deny
deny
deny
deny
deny
deny
deny
deny
deny
deny
deny
deny
deny
deny
deny
deny
deny
deny
deny
deny
deny
deny
deny
deny
deny
deny
deny
deny
deny
deny
deny
deny
deny
deny
deny
deny
deny
deny
deny
deny
deny
deny
deny
deny
deny
deny
deny
deny
deny
deny
deny
deny
deny
deny
deny
deny
deny
deny
deny
deny
deny
deny
deny
deny
deny
deny
deny
deny
deny
deny
deny
deny
deny
deny
deny
deny
deny
deny
deny
deny
deny
deny
deny
deny
deny
deny
deny
deny
deny
deny
deny
deny
deny
deny
deny
deny
deny
deny
deny
deny
deny
deny
deny
deny
deny
deny
deny
deny
deny
deny
deny
deny
deny
deny
deny
deny
deny
deny
deny
deny
deny
deny
deny
deny
deny
deny
deny
deny
deny
deny
deny
deny
deny
deny
deny
deny
deny
deny
deny
deny
deny
deny
deny
deny
deny
deny
deny
deny
deny
deny
deny
deny
deny
deny
deny
deny
deny
deny
deny
deny
deny
deny
deny
deny
deny
deny
deny
deny
deny
deny
deny
deny
deny
deny
deny
deny
deny
deny
deny
deny
deny
deny
deny
deny
deny
deny
deny
deny
deny
deny
deny
deny
deny
deny
deny
deny
deny
deny
deny
deny
deny
deny
deny
deny
deny
deny
deny
deny
deny
deny
deny
deny
deny
deny
deny
deny
deny
deny
deny
deny
deny
deny
deny
deny
deny
deny
deny
deny
deny
deny
deny
deny
deny
deny
deny
deny
deny
deny
deny
deny
deny
deny
deny
deny
deny
deny
deny
deny
deny
deny
deny
deny
deny
deny
deny
deny
deny
deny
deny
deny
deny
deny
deny
deny
deny
deny
deny
deny
deny
deny
deny
deny
deny
deny
deny
deny
deny
deny
deny
deny
deny
deny
deny
deny
deny
deny
deny
deny
deny
deny
deny
deny
deny
deny
deny
deny
deny
deny
deny
deny
deny
deny
deny
deny
deny
deny
deny
deny
deny
deny
deny
deny
deny
deny
deny
deny
deny
deny
deny
deny
deny
deny
deny
deny
deny
deny
deny
deny
deny
deny
deny
deny
deny
deny
deny
deny
deny
deny
deny
deny
deny
deny
deny
deny
deny
deny
deny
deny
deny
deny
deny
deny
deny
deny
deny
deny
deny
deny
deny
deny
deny
deny
deny
deny
deny
deny
deny
deny
deny
deny
deny
deny
deny
deny
deny
deny
deny
deny
deny
deny
deny
deny
deny
deny
deny
deny
deny
deny
deny
deny
deny
deny
deny
deny
deny
deny
deny
deny
deny
deny
deny
deny
deny
deny
deny
deny
deny
deny
deny
deny
deny
deny
deny
deny
deny
deny
deny
deny
deny
deny
deny
deny
deny
deny
deny
deny
deny
deny
deny
deny
deny
deny
deny
deny
deny
deny
deny
deny
deny
deny
deny
deny
deny
deny
deny
deny
deny
deny
deny
deny
deny
deny
deny
deny
deny
deny
deny
deny
deny
deny
deny
deny
deny
deny
deny
deny
deny
deny
deny
deny
deny
deny
deny
deny
deny
deny
deny
deny
deny
deny
deny
deny
deny
deny
deny
deny
deny
deny
deny
deny
deny
deny
deny
deny
deny
deny
deny
deny
deny
deny
deny
deny
deny
deny
deny
deny
deny
deny
deny
deny
deny
deny
deny
deny
deny
deny
deny
deny
deny
deny
deny
Exiting @ tick 70886596000 because a thread reached the max instruction count
