Running SPEC test: exchange2

/home/victorfu/cpu2017/benchspec/CPU/548.exchange2_r
/home/victorfu/finalproject/gem5/build/X86/gem5.opt --outdir="/home/victorfu/output/bench_spec/fastforward/exchange2" /home/victorfu/finalproject/gem5/configs/example/se.py --cmd=exchange2_r_base.victor_jun10-m64 --standard-switch=0 --warmup-insts=87000000 --caches  --l2cache --l1i_size=16kB  --l1d_size=64kB --l2_size=256kB --cpu-type=DerivO3CPU  --mem-type=DDR3_1600_8x8  --cpu-clock=1GHz --maxinsts=10000000 --options="6" --l2-hwp-type=TaggedPrefetcher --mlu_pf_type=perceptron

gem5 Simulator System.  http://gem5.org
gem5 is copyrighted software; use the --copyright option for details.

gem5 compiled Jun 14 2019 14:46:08
gem5 started Jun 14 2019 14:46:58
gem5 executing on tetracosa.cs.ucla.edu, pid 124328
command line: /home/victorfu/finalproject/gem5/build/X86/gem5.opt --outdir=/home/victorfu/output/bench_spec/fastforward/exchange2 /home/victorfu/finalproject/gem5/configs/example/se.py --cmd=exchange2_r_base.victor_jun10-m64 --standard-switch=0 --warmup-insts=87000000 --caches --l2cache --l1i_size=16kB --l1d_size=64kB --l2_size=256kB --cpu-type=DerivO3CPU --mem-type=DDR3_1600_8x8 --cpu-clock=1GHz --maxinsts=10000000 --options=6 --l2-hwp-type=TaggedPrefetcher --mlu_pf_type=perceptron

info: Standard input is not a terminal, disabling listeners.
Warning: l2-hwp-type is set ( TaggedPrefetcher ), but the current l2 has a default Hardware Prefetcher of type <class 'm5.params.NullSimObject'> , using the specified by the flag option.
MLU-Prefetch Perceptron Enabled.
Global frequency set at 1000000000000 ticks per second
warn: DRAM device capacity (8192 Mbytes) does not match the address range assigned (512 Mbytes)
PerceptronUnit is in mode: PAST_PREDICTIONS
warn: Sockets disabled, not accepting gdb connections
**** REAL SIMULATION ****
info: Entering event queue @ 0.  Starting simulation...
info: Increasing stack size by one page.
warn: ignoring syscall access(...)
xn[0] = 1,  new weight for w[0] = -1
xn[1] = 1,  new weight for w[1] = -1
xn[2] = 1,  new weight for w[2] = -1
xn[3] = 1,  new weight for w[3] = -1
xn[4] = 1,  new weight for w[4] = -1
xn[5] = 1,  new weight for w[5] = -1
xn[6] = 1,  new weight for w[6] = -1
xn[7] = 1,  new weight for w[7] = -1
xn[8] = 1,  new weight for w[8] = -1
xn[9] = 1,  new weight for w[9] = -1
xn[10] = 1,  new weight for w[10] = -1
xn[11] = 1,  new weight for w[11] = -1
xn[12] = 1,  new weight for w[12] = -1
xn[13] = 1,  new weight for w[13] = -1
xn[14] = 1,  new weight for w[14] = -1
xn[15] = 1,  new weight for w[15] = -1
xn[16] = 1,  new weight for w[16] = -1
xn[17] = 1,  new weight for w[17] = -1
xn[18] = 1,  new weight for w[18] = -1
xn[19] = 1,  new weight for w[19] = -1
xn[0] = 1,  new weight for w[0] = -1
xn[1] = 1,  new weight for w[1] = -1
xn[2] = 1,  new weight for w[2] = -1
xn[3] = 1,  new weight for w[3] = -1
xn[4] = 1,  new weight for w[4] = -1
xn[5] = 1,  new weight for w[5] = -1
xn[6] = 1,  new weight for w[6] = -1
xn[7] = 1,  new weight for w[7] = -1
xn[8] = 1,  new weight for w[8] = -1
xn[9] = 1,  new weight for w[9] = -1
xn[10] = 1,  new weight for w[10] = -1
xn[11] = 1,  new weight for w[11] = -1
xn[12] = 1,  new weight for w[12] = -1
xn[13] = 1,  new weight for w[13] = -1
xn[14] = 1,  new weight for w[14] = -1
xn[15] = 1,  new weight for w[15] = -1
xn[16] = 1,  new weight for w[16] = -1
xn[17] = 1,  new weight for w[17] = -1
xn[18] = 1,  new weight for w[18] = -1
xn[19] = 1,  new weight for w[19] = -1
xn[0] = 1,  new weight for w[0] = -2
xn[1] = -1,  new weight for w[1] = 0
xn[2] = -1,  new weight for w[2] = 0
xn[3] = 1,  new weight for w[3] = -2
xn[4] = 1,  new weight for w[4] = -2
xn[5] = 1,  new weight for w[5] = -2
xn[6] = 1,  new weight for w[6] = -2
xn[7] = 1,  new weight for w[7] = -2
xn[8] = 1,  new weight for w[8] = -2
xn[9] = 1,  new weight for w[9] = -2
xn[10] = 1,  new weight for w[10] = -2
xn[11] = 1,  new weight for w[11] = -2
xn[12] = 1,  new weight for w[12] = -2
xn[13] = 1,  new weight for w[13] = -2
xn[14] = 1,  new weight for w[14] = -2
xn[15] = 1,  new weight for w[15] = -2
xn[16] = 1,  new weight for w[16] = -2
xn[17] = 1,  new weight for w[17] = -2
xn[18] = 1,  new weight for w[18] = -2
xn[19] = 1,  new weight for w[19] = -2
xn[0] = 1,  new weight for w[0] = -2
xn[1] = -1,  new weight for w[1] = 0
xn[2] = -1,  new weight for w[2] = 0
xn[3] = 1,  new weight for w[3] = -2
xn[4] = 1,  new weight for w[4] = -2
xn[5] = 1,  new weight for w[5] = -2
xn[6] = 1,  new weight for w[6] = -2
xn[7] = 1,  new weight for w[7] = -2
xn[8] = 1,  new weight for w[8] = -2
xn[9] = 1,  new weight for w[9] = -2
xn[10] = 1,  new weight for w[10] = -2
xn[11] = 1,  new weight for w[11] = -2
xn[12] = 1,  new weight for w[12] = -2
xn[13] = 1,  new weight for w[13] = -2
xn[14] = 1,  new weight for w[14] = -2
xn[15] = 1,  new weight for w[15] = -2
xn[16] = 1,  new weight for w[16] = -2
xn[17] = 1,  new weight for w[17] = -2
xn[18] = 1,  new weight for w[18] = -2
xn[19] = 1,  new weight for w[19] = -2
xn[0] = 1,  new weight for w[0] = -3
xn[1] = -1,  new weight for w[1] = 1
xn[2] = -1,  new weight for w[2] = 1
xn[3] = 1,  new weight for w[3] = -3
xn[4] = 1,  new weight for w[4] = -3
xn[5] = 1,  new weight for w[5] = -3
xn[6] = 1,  new weight for w[6] = -3
xn[7] = 1,  new weight for w[7] = -3
xn[8] = 1,  new weight for w[8] = -3
xn[9] = 1,  new weight for w[9] = -3
xn[10] = 1,  new weight for w[10] = -3
xn[11] = 1,  new weight for w[11] = -3
xn[12] = 1,  new weight for w[12] = -3
xn[13] = 1,  new weight for w[13] = -3
xn[14] = 1,  new weight for w[14] = -3
xn[15] = 1,  new weight for w[15] = -3
xn[16] = 1,  new weight for w[16] = -3
xn[17] = 1,  new weight for w[17] = -3
xn[18] = 1,  new weight for w[18] = -3
xn[19] = 1,  new weight for w[19] = -3
xn[0] = 1,  new weight for w[0] = -3
xn[1] = -1,  new weight for w[1] = 1
xn[2] = -1,  new weight for w[2] = 1
xn[3] = 1,  new weight for w[3] = -3
xn[4] = 1,  new weight for w[4] = -3
xn[5] = 1,  new weight for w[5] = -3
xn[6] = 1,  new weight for w[6] = -3
xn[7] = 1,  new weight for w[7] = -3
xn[8] = 1,  new weight for w[8] = -3
xn[9] = 1,  new weight for w[9] = -3
xn[10] = 1,  new weight for w[10] = -3
xn[11] = 1,  new weight for w[11] = -3
xn[12] = 1,  new weight for w[12] = -3
xn[13] = 1,  new weight for w[13] = -3
xn[14] = 1,  new weight for w[14] = -3
xn[15] = 1,  new weight for w[15] = -3
xn[16] = 1,  new weight for w[16] = -3
xn[17] = 1,  new weight for w[17] = -3
xn[18] = 1,  new weight for w[18] = -3
xn[19] = 1,  new weight for w[19] = -3
xn[0] = 1,  new weight for w[0] = -4
xn[1] = -1,  new weight for w[1] = 2
xn[2] = -1,  new weight for w[2] = 2
xn[3] = -1,  new weight for w[3] = -2
xn[4] = -1,  new weight for w[4] = -2
xn[5] = 1,  new weight for w[5] = -4
xn[6] = 1,  new weight for w[6] = -4
xn[7] = 1,  new weight for w[7] = -4
xn[8] = 1,  new weight for w[8] = -4
xn[9] = 1,  new weight for w[9] = -4
xn[10] = 1,  new weight for w[10] = -4
xn[11] = 1,  new weight for w[11] = -4
xn[12] = 1,  new weight for w[12] = -4
xn[13] = 1,  new weight for w[13] = -4
xn[14] = 1,  new weight for w[14] = -4
xn[15] = 1,  new weight for w[15] = -4
xn[16] = 1,  new weight for w[16] = -4
xn[17] = 1,  new weight for w[17] = -4
xn[18] = 1,  new weight for w[18] = -4
xn[19] = 1,  new weight for w[19] = -4
xn[0] = 1,  new weight for w[0] = -4
xn[1] = -1,  new weight for w[1] = 2
xn[2] = -1,  new weight for w[2] = 2
xn[3] = -1,  new weight for w[3] = -2
xn[4] = -1,  new weight for w[4] = -2
xn[5] = 1,  new weight for w[5] = -4
xn[6] = 1,  new weight for w[6] = -4
xn[7] = 1,  new weight for w[7] = -4
xn[8] = 1,  new weight for w[8] = -4
xn[9] = 1,  new weight for w[9] = -4
xn[10] = 1,  new weight for w[10] = -4
xn[11] = 1,  new weight for w[11] = -4
xn[12] = 1,  new weight for w[12] = -4
xn[13] = 1,  new weight for w[13] = -4
xn[14] = 1,  new weight for w[14] = -4
xn[15] = 1,  new weight for w[15] = -4
xn[16] = 1,  new weight for w[16] = -4
xn[17] = 1,  new weight for w[17] = -4
xn[18] = 1,  new weight for w[18] = -4
xn[19] = 1,  new weight for w[19] = -4
xn[0] = 1,  new weight for w[0] = -5
xn[1] = -1,  new weight for w[1] = 3
xn[2] = -1,  new weight for w[2] = 3
xn[3] = -1,  new weight for w[3] = -1
xn[4] = -1,  new weight for w[4] = -1
xn[5] = -1,  new weight for w[5] = -3
xn[6] = -1,  new weight for w[6] = -3
xn[7] = -1,  new weight for w[7] = -3
xn[8] = -1,  new weight for w[8] = -3
xn[9] = 1,  new weight for w[9] = -5
xn[10] = 1,  new weight for w[10] = -5
xn[11] = 1,  new weight for w[11] = -5
xn[12] = 1,  new weight for w[12] = -5
xn[13] = 1,  new weight for w[13] = -5
xn[14] = 1,  new weight for w[14] = -5
xn[15] = 1,  new weight for w[15] = -5
xn[16] = 1,  new weight for w[16] = -5
xn[17] = 1,  new weight for w[17] = -5
xn[18] = 1,  new weight for w[18] = -5
xn[19] = 1,  new weight for w[19] = -5
xn[0] = 1,  new weight for w[0] = -5
xn[1] = -1,  new weight for w[1] = 3
xn[2] = -1,  new weight for w[2] = 3
xn[3] = -1,  new weight for w[3] = -1
xn[4] = -1,  new weight for w[4] = -1
xn[5] = -1,  new weight for w[5] = -3
xn[6] = -1,  new weight for w[6] = -3
xn[7] = -1,  new weight for w[7] = -3
xn[8] = -1,  new weight for w[8] = -3
xn[9] = 1,  new weight for w[9] = -5
xn[10] = 1,  new weight for w[10] = -5
xn[11] = 1,  new weight for w[11] = -5
xn[12] = 1,  new weight for w[12] = -5
xn[13] = 1,  new weight for w[13] = -5
xn[14] = 1,  new weight for w[14] = -5
xn[15] = 1,  new weight for w[15] = -5
xn[16] = 1,  new weight for w[16] = -5
xn[17] = 1,  new weight for w[17] = -5
xn[18] = 1,  new weight for w[18] = -5
xn[19] = 1,  new weight for w[19] = -5
xn[0] = 1,  new weight for w[0] = -6
xn[1] = -1,  new weight for w[1] = 4
xn[2] = -1,  new weight for w[2] = 4
xn[3] = -1,  new weight for w[3] = 0
xn[4] = -1,  new weight for w[4] = 0
xn[5] = -1,  new weight for w[5] = -2
xn[6] = -1,  new weight for w[6] = -2
xn[7] = -1,  new weight for w[7] = -2
xn[8] = -1,  new weight for w[8] = -2
xn[9] = 1,  new weight for w[9] = -6
xn[10] = 1,  new weight for w[10] = -6
xn[11] = 1,  new weight for w[11] = -6
xn[12] = 1,  new weight for w[12] = -6
xn[13] = 1,  new weight for w[13] = -6
xn[14] = 1,  new weight for w[14] = -6
xn[15] = 1,  new weight for w[15] = -6
xn[16] = 1,  new weight for w[16] = -6
xn[17] = 1,  new weight for w[17] = -6
xn[18] = 1,  new weight for w[18] = -6
xn[19] = 1,  new weight for w[19] = -6
xn[0] = 1,  new weight for w[0] = -6
xn[1] = -1,  new weight for w[1] = 4
xn[2] = -1,  new weight for w[2] = 4
xn[3] = -1,  new weight for w[3] = 0
xn[4] = -1,  new weight for w[4] = 0
xn[5] = -1,  new weight for w[5] = -2
xn[6] = -1,  new weight for w[6] = -2
xn[7] = -1,  new weight for w[7] = -2
xn[8] = -1,  new weight for w[8] = -2
xn[9] = 1,  new weight for w[9] = -6
xn[10] = 1,  new weight for w[10] = -6
xn[11] = 1,  new weight for w[11] = -6
xn[12] = 1,  new weight for w[12] = -6
xn[13] = 1,  new weight for w[13] = -6
xn[14] = 1,  new weight for w[14] = -6
xn[15] = 1,  new weight for w[15] = -6
xn[16] = 1,  new weight for w[16] = -6
xn[17] = 1,  new weight for w[17] = -6
xn[18] = 1,  new weight for w[18] = -6
xn[19] = 1,  new weight for w[19] = -6
xn[0] = 1,  new weight for w[0] = -7
xn[1] = -1,  new weight for w[1] = 5
xn[2] = -1,  new weight for w[2] = 5
xn[3] = -1,  new weight for w[3] = 1
xn[4] = -1,  new weight for w[4] = 1
xn[5] = -1,  new weight for w[5] = -1
xn[6] = -1,  new weight for w[6] = -1
xn[7] = -1,  new weight for w[7] = -1
xn[8] = -1,  new weight for w[8] = -1
xn[9] = -1,  new weight for w[9] = -5
xn[10] = -1,  new weight for w[10] = -5
xn[11] = 1,  new weight for w[11] = -7
xn[12] = 1,  new weight for w[12] = -7
xn[13] = 1,  new weight for w[13] = -7
xn[14] = 1,  new weight for w[14] = -7
xn[15] = 1,  new weight for w[15] = -7
xn[16] = 1,  new weight for w[16] = -7
xn[17] = 1,  new weight for w[17] = -7
xn[18] = 1,  new weight for w[18] = -7
xn[19] = 1,  new weight for w[19] = -7
xn[0] = 1,  new weight for w[0] = -7
xn[1] = -1,  new weight for w[1] = 5
xn[2] = -1,  new weight for w[2] = 5
xn[3] = -1,  new weight for w[3] = 1
xn[4] = -1,  new weight for w[4] = 1
xn[5] = -1,  new weight for w[5] = -1
xn[6] = -1,  new weight for w[6] = -1
xn[7] = -1,  new weight for w[7] = -1
xn[8] = -1,  new weight for w[8] = -1
xn[9] = -1,  new weight for w[9] = -5
xn[10] = -1,  new weight for w[10] = -5
xn[11] = 1,  new weight for w[11] = -7
xn[12] = 1,  new weight for w[12] = -7
xn[13] = 1,  new weight for w[13] = -7
xn[14] = 1,  new weight for w[14] = -7
xn[15] = 1,  new weight for w[15] = -7
xn[16] = 1,  new weight for w[16] = -7
xn[17] = 1,  new weight for w[17] = -7
xn[18] = 1,  new weight for w[18] = -7
xn[19] = 1,  new weight for w[19] = -7
xn[0] = 1,  new weight for w[0] = -8
xn[1] = -1,  new weight for w[1] = 6
xn[2] = -1,  new weight for w[2] = 6
xn[3] = -1,  new weight for w[3] = 2
xn[4] = -1,  new weight for w[4] = 2
xn[5] = -1,  new weight for w[5] = 0
xn[6] = -1,  new weight for w[6] = 0
xn[7] = -1,  new weight for w[7] = 0
xn[8] = -1,  new weight for w[8] = 0
xn[9] = -1,  new weight for w[9] = -4
xn[10] = -1,  new weight for w[10] = -4
xn[11] = -1,  new weight for w[11] = -6
xn[12] = -1,  new weight for w[12] = -6
xn[13] = 1,  new weight for w[13] = -8
xn[14] = 1,  new weight for w[14] = -8
xn[15] = 1,  new weight for w[15] = -8
xn[16] = 1,  new weight for w[16] = -8
xn[17] = 1,  new weight for w[17] = -8
xn[18] = 1,  new weight for w[18] = -8
xn[19] = 1,  new weight for w[19] = -8
xn[0] = 1,  new weight for w[0] = -8
xn[1] = -1,  new weight for w[1] = 6
xn[2] = -1,  new weight for w[2] = 6
xn[3] = -1,  new weight for w[3] = 2
xn[4] = -1,  new weight for w[4] = 2
xn[5] = -1,  new weight for w[5] = 0
xn[6] = -1,  new weight for w[6] = 0
xn[7] = -1,  new weight for w[7] = 0
xn[8] = -1,  new weight for w[8] = 0
xn[9] = -1,  new weight for w[9] = -4
xn[10] = -1,  new weight for w[10] = -4
xn[11] = -1,  new weight for w[11] = -6
xn[12] = -1,  new weight for w[12] = -6
xn[13] = 1,  new weight for w[13] = -8
xn[14] = 1,  new weight for w[14] = -8
xn[15] = 1,  new weight for w[15] = -8
xn[16] = 1,  new weight for w[16] = -8
xn[17] = 1,  new weight for w[17] = -8
xn[18] = 1,  new weight for w[18] = -8
xn[19] = 1,  new weight for w[19] = -8
xn[0] = 1,  new weight for w[0] = -9
xn[1] = -1,  new weight for w[1] = 7
xn[2] = -1,  new weight for w[2] = 7
xn[3] = -1,  new weight for w[3] = 3
xn[4] = -1,  new weight for w[4] = 3
xn[5] = -1,  new weight for w[5] = 1
xn[6] = -1,  new weight for w[6] = 1
xn[7] = -1,  new weight for w[7] = 1
xn[8] = -1,  new weight for w[8] = 1
xn[9] = -1,  new weight for w[9] = -3
xn[10] = -1,  new weight for w[10] = -3
xn[11] = -1,  new weight for w[11] = -5
xn[12] = -1,  new weight for w[12] = -5
xn[13] = -1,  new weight for w[13] = -7
xn[14] = -1,  new weight for w[14] = -7
xn[15] = -1,  new weight for w[15] = -7
xn[16] = -1,  new weight for w[16] = -7
xn[17] = 1,  new weight for w[17] = -9
xn[18] = 1,  new weight for w[18] = -9
xn[19] = 1,  new weight for w[19] = -9
xn[0] = 1,  new weight for w[0] = -9
xn[1] = -1,  new weight for w[1] = 7
xn[2] = -1,  new weight for w[2] = 7
xn[3] = -1,  new weight for w[3] = 3
xn[4] = -1,  new weight for w[4] = 3
xn[5] = -1,  new weight for w[5] = 1
xn[6] = -1,  new weight for w[6] = 1
xn[7] = -1,  new weight for w[7] = 1
xn[8] = -1,  new weight for w[8] = 1
xn[9] = -1,  new weight for w[9] = -3
xn[10] = -1,  new weight for w[10] = -3
xn[11] = -1,  new weight for w[11] = -5
xn[12] = -1,  new weight for w[12] = -5
xn[13] = -1,  new weight for w[13] = -7
xn[14] = -1,  new weight for w[14] = -7
xn[15] = -1,  new weight for w[15] = -7
xn[16] = -1,  new weight for w[16] = -7
xn[17] = 1,  new weight for w[17] = -9
xn[18] = 1,  new weight for w[18] = -9
xn[19] = 1,  new weight for w[19] = -9
xn[0] = 1,  new weight for w[0] = -10
xn[1] = -1,  new weight for w[1] = 8
xn[2] = -1,  new weight for w[2] = 8
xn[3] = -1,  new weight for w[3] = 4
xn[4] = -1,  new weight for w[4] = 4
xn[5] = -1,  new weight for w[5] = 2
xn[6] = -1,  new weight for w[6] = 2
xn[7] = -1,  new weight for w[7] = 2
xn[8] = -1,  new weight for w[8] = 2
xn[9] = -1,  new weight for w[9] = -2
xn[10] = -1,  new weight for w[10] = -2
xn[11] = -1,  new weight for w[11] = -4
xn[12] = -1,  new weight for w[12] = -4
xn[13] = -1,  new weight for w[13] = -6
xn[14] = -1,  new weight for w[14] = -6
xn[15] = -1,  new weight for w[15] = -6
xn[16] = -1,  new weight for w[16] = -6
xn[17] = 1,  new weight for w[17] = -10
xn[18] = 1,  new weight for w[18] = -10
xn[19] = 1,  new weight for w[19] = -10
xn[0] = 1,  new weight for w[0] = -10
xn[1] = -1,  new weight for w[1] = 8
xn[2] = -1,  new weight for w[2] = 8
xn[3] = -1,  new weight for w[3] = 4
xn[4] = -1,  new weight for w[4] = 4
xn[5] = -1,  new weight for w[5] = 2
xn[6] = -1,  new weight for w[6] = 2
xn[7] = -1,  new weight for w[7] = 2
xn[8] = -1,  new weight for w[8] = 2
xn[9] = -1,  new weight for w[9] = -2
xn[10] = -1,  new weight for w[10] = -2
xn[11] = -1,  new weight for w[11] = -4
xn[12] = -1,  new weight for w[12] = -4
xn[13] = -1,  new weight for w[13] = -6
xn[14] = -1,  new weight for w[14] = -6
xn[15] = -1,  new weight for w[15] = -6
xn[16] = -1,  new weight for w[16] = -6
xn[17] = 1,  new weight for w[17] = -10
xn[18] = 1,  new weight for w[18] = -10
xn[19] = 1,  new weight for w[19] = -10
xn[0] = 1,  new weight for w[0] = -11
xn[1] = 1,  new weight for w[1] = 7
xn[2] = 1,  new weight for w[2] = 7
xn[3] = -1,  new weight for w[3] = 5
xn[4] = -1,  new weight for w[4] = 5
xn[5] = -1,  new weight for w[5] = 3
xn[6] = -1,  new weight for w[6] = 3
xn[7] = -1,  new weight for w[7] = 3
xn[8] = -1,  new weight for w[8] = 3
xn[9] = -1,  new weight for w[9] = -1
xn[10] = -1,  new weight for w[10] = -1
xn[11] = -1,  new weight for w[11] = -3
xn[12] = -1,  new weight for w[12] = -3
xn[13] = -1,  new weight for w[13] = -5
xn[14] = -1,  new weight for w[14] = -5
xn[15] = -1,  new weight for w[15] = -5
xn[16] = -1,  new weight for w[16] = -5
xn[17] = -1,  new weight for w[17] = -9
xn[18] = -1,  new weight for w[18] = -9
xn[19] = -1,  new weight for w[19] = -9
xn[0] = 1,  new weight for w[0] = -11
xn[1] = 1,  new weight for w[1] = 7
xn[2] = 1,  new weight for w[2] = 7
xn[3] = -1,  new weight for w[3] = 5
xn[4] = -1,  new weight for w[4] = 5
xn[5] = -1,  new weight for w[5] = 3
xn[6] = -1,  new weight for w[6] = 3
xn[7] = -1,  new weight for w[7] = 3
xn[8] = -1,  new weight for w[8] = 3
xn[9] = -1,  new weight for w[9] = -1
xn[10] = -1,  new weight for w[10] = -1
xn[11] = -1,  new weight for w[11] = -3
xn[12] = -1,  new weight for w[12] = -3
xn[13] = -1,  new weight for w[13] = -5
xn[14] = -1,  new weight for w[14] = -5
xn[15] = -1,  new weight for w[15] = -5
xn[16] = -1,  new weight for w[16] = -5
xn[17] = -1,  new weight for w[17] = -9
xn[18] = -1,  new weight for w[18] = -9
xn[19] = -1,  new weight for w[19] = -9
xn[0] = 1,  new weight for w[0] = -12
xn[1] = 1,  new weight for w[1] = 6
xn[2] = 1,  new weight for w[2] = 6
xn[3] = 1,  new weight for w[3] = 4
xn[4] = 1,  new weight for w[4] = 4
xn[5] = -1,  new weight for w[5] = 4
xn[6] = -1,  new weight for w[6] = 4
xn[7] = -1,  new weight for w[7] = 4
xn[8] = -1,  new weight for w[8] = 4
xn[9] = -1,  new weight for w[9] = 0
xn[10] = -1,  new weight for w[10] = 0
xn[11] = -1,  new weight for w[11] = -2
xn[12] = -1,  new weight for w[12] = -2
xn[13] = -1,  new weight for w[13] = -4
xn[14] = -1,  new weight for w[14] = -4
xn[15] = -1,  new weight for w[15] = -4
xn[16] = -1,  new weight for w[16] = -4
xn[17] = -1,  new weight for w[17] = -8
xn[18] = -1,  new weight for w[18] = -8
xn[19] = -1,  new weight for w[19] = -8
xn[0] = 1,  new weight for w[0] = -12
xn[1] = 1,  new weight for w[1] = 6
xn[2] = 1,  new weight for w[2] = 6
xn[3] = 1,  new weight for w[3] = 4
xn[4] = 1,  new weight for w[4] = 4
xn[5] = -1,  new weight for w[5] = 4
xn[6] = -1,  new weight for w[6] = 4
xn[7] = -1,  new weight for w[7] = 4
xn[8] = -1,  new weight for w[8] = 4
xn[9] = -1,  new weight for w[9] = 0
xn[10] = -1,  new weight for w[10] = 0
xn[11] = -1,  new weight for w[11] = -2
xn[12] = -1,  new weight for w[12] = -2
xn[13] = -1,  new weight for w[13] = -4
xn[14] = -1,  new weight for w[14] = -4
xn[15] = -1,  new weight for w[15] = -4
xn[16] = -1,  new weight for w[16] = -4
xn[17] = -1,  new weight for w[17] = -8
xn[18] = -1,  new weight for w[18] = -8
xn[19] = -1,  new weight for w[19] = -8
xn[0] = 1,  new weight for w[0] = -13
xn[1] = 1,  new weight for w[1] = 5
xn[2] = 1,  new weight for w[2] = 5
xn[3] = 1,  new weight for w[3] = 3
xn[4] = 1,  new weight for w[4] = 3
xn[5] = -1,  new weight for w[5] = 5
xn[6] = -1,  new weight for w[6] = 5
xn[7] = -1,  new weight for w[7] = 5
xn[8] = -1,  new weight for w[8] = 5
xn[9] = -1,  new weight for w[9] = 1
xn[10] = -1,  new weight for w[10] = 1
xn[11] = -1,  new weight for w[11] = -1
xn[12] = -1,  new weight for w[12] = -1
xn[13] = -1,  new weight for w[13] = -3
xn[14] = -1,  new weight for w[14] = -3
xn[15] = -1,  new weight for w[15] = -3
xn[16] = -1,  new weight for w[16] = -3
xn[17] = -1,  new weight for w[17] = -7
xn[18] = -1,  new weight for w[18] = -7
xn[19] = -1,  new weight for w[19] = -7
xn[0] = 1,  new weight for w[0] = -13
xn[1] = 1,  new weight for w[1] = 5
xn[2] = 1,  new weight for w[2] = 5
xn[3] = 1,  new weight for w[3] = 3
xn[4] = 1,  new weight for w[4] = 3
xn[5] = -1,  new weight for w[5] = 5
xn[6] = -1,  new weight for w[6] = 5
xn[7] = -1,  new weight for w[7] = 5
xn[8] = -1,  new weight for w[8] = 5
xn[9] = -1,  new weight for w[9] = 1
xn[10] = -1,  new weight for w[10] = 1
xn[11] = -1,  new weight for w[11] = -1
xn[12] = -1,  new weight for w[12] = -1
xn[13] = -1,  new weight for w[13] = -3
xn[14] = -1,  new weight for w[14] = -3
xn[15] = -1,  new weight for w[15] = -3
xn[16] = -1,  new weight for w[16] = -3
xn[17] = -1,  new weight for w[17] = -7
xn[18] = -1,  new weight for w[18] = -7
xn[19] = -1,  new weight for w[19] = -7
xn[0] = 1,  new weight for w[0] = -14
xn[1] = 1,  new weight for w[1] = 4
xn[2] = 1,  new weight for w[2] = 4
xn[3] = 1,  new weight for w[3] = 2
xn[4] = 1,  new weight for w[4] = 2
xn[5] = -1,  new weight for w[5] = 6
xn[6] = -1,  new weight for w[6] = 6
xn[7] = -1,  new weight for w[7] = 6
xn[8] = -1,  new weight for w[8] = 6
xn[9] = -1,  new weight for w[9] = 2
xn[10] = -1,  new weight for w[10] = 2
xn[11] = -1,  new weight for w[11] = 0
xn[12] = -1,  new weight for w[12] = 0
xn[13] = -1,  new weight for w[13] = -2
xn[14] = -1,  new weight for w[14] = -2
xn[15] = -1,  new weight for w[15] = -2
xn[16] = -1,  new weight for w[16] = -2
xn[17] = -1,  new weight for w[17] = -6
xn[18] = -1,  new weight for w[18] = -6
xn[19] = -1,  new weight for w[19] = -6
xn[0] = 1,  new weight for w[0] = -14
xn[1] = 1,  new weight for w[1] = 4
xn[2] = 1,  new weight for w[2] = 4
xn[3] = 1,  new weight for w[3] = 2
xn[4] = 1,  new weight for w[4] = 2
xn[5] = -1,  new weight for w[5] = 6
xn[6] = -1,  new weight for w[6] = 6
xn[7] = -1,  new weight for w[7] = 6
xn[8] = -1,  new weight for w[8] = 6
xn[9] = -1,  new weight for w[9] = 2
xn[10] = -1,  new weight for w[10] = 2
xn[11] = -1,  new weight for w[11] = 0
xn[12] = -1,  new weight for w[12] = 0
xn[13] = -1,  new weight for w[13] = -2
xn[14] = -1,  new weight for w[14] = -2
xn[15] = -1,  new weight for w[15] = -2
xn[16] = -1,  new weight for w[16] = -2
xn[17] = -1,  new weight for w[17] = -6
xn[18] = -1,  new weight for w[18] = -6
xn[19] = -1,  new weight for w[19] = -6
xn[0] = 1,  new weight for w[0] = -15
xn[1] = 1,  new weight for w[1] = 3
xn[2] = 1,  new weight for w[2] = 3
xn[3] = 1,  new weight for w[3] = 1
xn[4] = 1,  new weight for w[4] = 1
xn[5] = 1,  new weight for w[5] = 5
xn[6] = 1,  new weight for w[6] = 5
xn[7] = 1,  new weight for w[7] = 5
xn[8] = -1,  new weight for w[8] = 7
xn[9] = 1,  new weight for w[9] = 1
xn[10] = 1,  new weight for w[10] = 1
xn[11] = 1,  new weight for w[11] = -1
xn[12] = 1,  new weight for w[12] = -1
xn[13] = -1,  new weight for w[13] = -1
xn[14] = -1,  new weight for w[14] = -1
xn[15] = -1,  new weight for w[15] = -1
xn[16] = -1,  new weight for w[16] = -1
xn[17] = -1,  new weight for w[17] = -5
xn[18] = -1,  new weight for w[18] = -5
xn[19] = -1,  new weight for w[19] = -5
xn[0] = 1,  new weight for w[0] = -15
xn[1] = 1,  new weight for w[1] = 3
xn[2] = 1,  new weight for w[2] = 3
xn[3] = 1,  new weight for w[3] = 1
xn[4] = 1,  new weight for w[4] = 1
xn[5] = 1,  new weight for w[5] = 5
xn[6] = 1,  new weight for w[6] = 5
xn[7] = 1,  new weight for w[7] = 5
xn[8] = -1,  new weight for w[8] = 7
xn[9] = 1,  new weight for w[9] = 1
xn[10] = 1,  new weight for w[10] = 1
xn[11] = 1,  new weight for w[11] = -1
xn[12] = 1,  new weight for w[12] = -1
xn[13] = -1,  new weight for w[13] = -1
xn[14] = -1,  new weight for w[14] = -1
xn[15] = -1,  new weight for w[15] = -1
xn[16] = -1,  new weight for w[16] = -1
xn[17] = -1,  new weight for w[17] = -5
xn[18] = -1,  new weight for w[18] = -5
xn[19] = -1,  new weight for w[19] = -5
xn[0] = 1,  new weight for w[0] = -16
xn[1] = 1,  new weight for w[1] = 2
xn[2] = 1,  new weight for w[2] = 2
xn[3] = 1,  new weight for w[3] = 0
xn[4] = 1,  new weight for w[4] = 0
xn[5] = 1,  new weight for w[5] = 4
xn[6] = 1,  new weight for w[6] = 4
xn[7] = 1,  new weight for w[7] = 4
xn[8] = 1,  new weight for w[8] = 6
xn[9] = 1,  new weight for w[9] = 0
xn[10] = -1,  new weight for w[10] = 2
xn[11] = 1,  new weight for w[11] = -2
xn[12] = 1,  new weight for w[12] = -2
xn[13] = 1,  new weight for w[13] = -2
xn[14] = 1,  new weight for w[14] = -2
xn[15] = -1,  new weight for w[15] = 0
xn[16] = -1,  new weight for w[16] = 0
xn[17] = -1,  new weight for w[17] = -4
xn[18] = -1,  new weight for w[18] = -4
xn[19] = -1,  new weight for w[19] = -4
xn[0] = 1,  new weight for w[0] = -16
xn[1] = 1,  new weight for w[1] = 2
xn[2] = 1,  new weight for w[2] = 2
xn[3] = 1,  new weight for w[3] = 0
xn[4] = 1,  new weight for w[4] = 0
xn[5] = 1,  new weight for w[5] = 4
xn[6] = 1,  new weight for w[6] = 4
xn[7] = 1,  new weight for w[7] = 4
xn[8] = 1,  new weight for w[8] = 6
xn[9] = 1,  new weight for w[9] = 0
xn[10] = -1,  new weight for w[10] = 2
xn[11] = 1,  new weight for w[11] = -2
xn[12] = 1,  new weight for w[12] = -2
xn[13] = 1,  new weight for w[13] = -2
xn[14] = 1,  new weight for w[14] = -2
xn[15] = -1,  new weight for w[15] = 0
xn[16] = -1,  new weight for w[16] = 0
xn[17] = -1,  new weight for w[17] = -4
xn[18] = -1,  new weight for w[18] = -4
xn[19] = -1,  new weight for w[19] = -4
xn[0] = 1,  new weight for w[0] = -17
xn[1] = 1,  new weight for w[1] = 1
xn[2] = 1,  new weight for w[2] = 1
xn[3] = 1,  new weight for w[3] = -1
xn[4] = 1,  new weight for w[4] = -1
xn[5] = 1,  new weight for w[5] = 3
xn[6] = 1,  new weight for w[6] = 3
xn[7] = 1,  new weight for w[7] = 3
xn[8] = 1,  new weight for w[8] = 5
xn[9] = 1,  new weight for w[9] = -1
xn[10] = -1,  new weight for w[10] = 3
xn[11] = 1,  new weight for w[11] = -3
xn[12] = 1,  new weight for w[12] = -3
xn[13] = 1,  new weight for w[13] = -3
xn[14] = 1,  new weight for w[14] = -3
xn[15] = -1,  new weight for w[15] = 1
xn[16] = -1,  new weight for w[16] = 1
xn[17] = -1,  new weight for w[17] = -3
xn[18] = -1,  new weight for w[18] = -3
xn[19] = -1,  new weight for w[19] = -3
xn[0] = 1,  new weight for w[0] = -17
xn[1] = 1,  new weight for w[1] = 1
xn[2] = 1,  new weight for w[2] = 1
xn[3] = 1,  new weight for w[3] = -1
xn[4] = 1,  new weight for w[4] = -1
xn[5] = 1,  new weight for w[5] = 3
xn[6] = 1,  new weight for w[6] = 3
xn[7] = 1,  new weight for w[7] = 3
xn[8] = 1,  new weight for w[8] = 5
xn[9] = 1,  new weight for w[9] = -1
xn[10] = -1,  new weight for w[10] = 3
xn[11] = 1,  new weight for w[11] = -3
xn[12] = 1,  new weight for w[12] = -3
xn[13] = 1,  new weight for w[13] = -3
xn[14] = 1,  new weight for w[14] = -3
xn[15] = -1,  new weight for w[15] = 1
xn[16] = -1,  new weight for w[16] = 1
xn[17] = -1,  new weight for w[17] = -3
xn[18] = -1,  new weight for w[18] = -3
xn[19] = -1,  new weight for w[19] = -3
xn[0] = 1,  new weight for w[0] = -18
xn[1] = 1,  new weight for w[1] = 0
xn[2] = -1,  new weight for w[2] = 2
xn[3] = 1,  new weight for w[3] = -2
xn[4] = 1,  new weight for w[4] = -2
xn[5] = 1,  new weight for w[5] = 2
xn[6] = 1,  new weight for w[6] = 2
xn[7] = 1,  new weight for w[7] = 2
xn[8] = 1,  new weight for w[8] = 4
xn[9] = 1,  new weight for w[9] = -2
xn[10] = 1,  new weight for w[10] = 2
xn[11] = 1,  new weight for w[11] = -4
xn[12] = -1,  new weight for w[12] = -2
xn[13] = 1,  new weight for w[13] = -4
xn[14] = 1,  new weight for w[14] = -4
xn[15] = 1,  new weight for w[15] = 0
xn[16] = 1,  new weight for w[16] = 0
xn[17] = -1,  new weight for w[17] = -2
xn[18] = -1,  new weight for w[18] = -2
xn[19] = -1,  new weight for w[19] = -2
xn[0] = 1,  new weight for w[0] = -18
xn[1] = 1,  new weight for w[1] = 0
xn[2] = -1,  new weight for w[2] = 2
xn[3] = 1,  new weight for w[3] = -2
xn[4] = 1,  new weight for w[4] = -2
xn[5] = 1,  new weight for w[5] = 2
xn[6] = 1,  new weight for w[6] = 2
xn[7] = 1,  new weight for w[7] = 2
xn[8] = 1,  new weight for w[8] = 4
xn[9] = 1,  new weight for w[9] = -2
xn[10] = 1,  new weight for w[10] = 2
xn[11] = 1,  new weight for w[11] = -4
xn[12] = -1,  new weight for w[12] = -2
xn[13] = 1,  new weight for w[13] = -4
xn[14] = 1,  new weight for w[14] = -4
xn[15] = 1,  new weight for w[15] = 0
xn[16] = 1,  new weight for w[16] = 0
xn[17] = -1,  new weight for w[17] = -2
xn[18] = -1,  new weight for w[18] = -2
xn[19] = -1,  new weight for w[19] = -2
xn[0] = 1,  new weight for w[0] = -19
xn[1] = -1,  new weight for w[1] = 1
xn[2] = -1,  new weight for w[2] = 3
xn[3] = 1,  new weight for w[3] = -3
xn[4] = -1,  new weight for w[4] = -1
xn[5] = 1,  new weight for w[5] = 1
xn[6] = 1,  new weight for w[6] = 1
xn[7] = 1,  new weight for w[7] = 1
xn[8] = 1,  new weight for w[8] = 3
xn[9] = 1,  new weight for w[9] = -3
xn[10] = 1,  new weight for w[10] = 1
xn[11] = 1,  new weight for w[11] = -5
xn[12] = 1,  new weight for w[12] = -3
xn[13] = 1,  new weight for w[13] = -5
xn[14] = -1,  new weight for w[14] = -3
xn[15] = 1,  new weight for w[15] = -1
xn[16] = 1,  new weight for w[16] = -1
xn[17] = 1,  new weight for w[17] = -3
xn[18] = 1,  new weight for w[18] = -3
xn[19] = -1,  new weight for w[19] = -1
xn[0] = 1,  new weight for w[0] = -19
xn[1] = -1,  new weight for w[1] = 1
xn[2] = -1,  new weight for w[2] = 3
xn[3] = 1,  new weight for w[3] = -3
xn[4] = -1,  new weight for w[4] = -1
xn[5] = 1,  new weight for w[5] = 1
xn[6] = 1,  new weight for w[6] = 1
xn[7] = 1,  new weight for w[7] = 1
xn[8] = 1,  new weight for w[8] = 3
xn[9] = 1,  new weight for w[9] = -3
xn[10] = 1,  new weight for w[10] = 1
xn[11] = 1,  new weight for w[11] = -5
xn[12] = 1,  new weight for w[12] = -3
xn[13] = 1,  new weight for w[13] = -5
xn[14] = -1,  new weight for w[14] = -3
xn[15] = 1,  new weight for w[15] = -1
xn[16] = 1,  new weight for w[16] = -1
xn[17] = 1,  new weight for w[17] = -3
xn[18] = 1,  new weight for w[18] = -3
xn[19] = -1,  new weight for w[19] = -1
xn[0] = 1,  new weight for w[0] = -20
xn[1] = -1,  new weight for w[1] = 2
xn[2] = -1,  new weight for w[2] = 4
xn[3] = 1,  new weight for w[3] = -4
xn[4] = -1,  new weight for w[4] = 0
xn[5] = 1,  new weight for w[5] = 0
xn[6] = 1,  new weight for w[6] = 0
xn[7] = 1,  new weight for w[7] = 0
xn[8] = 1,  new weight for w[8] = 2
xn[9] = 1,  new weight for w[9] = -4
xn[10] = 1,  new weight for w[10] = 0
xn[11] = 1,  new weight for w[11] = -6
xn[12] = 1,  new weight for w[12] = -4
xn[13] = 1,  new weight for w[13] = -6
xn[14] = -1,  new weight for w[14] = -2
xn[15] = 1,  new weight for w[15] = -2
xn[16] = 1,  new weight for w[16] = -2
xn[17] = 1,  new weight for w[17] = -4
xn[18] = 1,  new weight for w[18] = -4
xn[19] = -1,  new weight for w[19] = 0
xn[0] = 1,  new weight for w[0] = -20
xn[1] = -1,  new weight for w[1] = 2
xn[2] = -1,  new weight for w[2] = 4
xn[3] = 1,  new weight for w[3] = -4
xn[4] = -1,  new weight for w[4] = 0
xn[5] = 1,  new weight for w[5] = 0
xn[6] = 1,  new weight for w[6] = 0
xn[7] = 1,  new weight for w[7] = 0
xn[8] = 1,  new weight for w[8] = 2
xn[9] = 1,  new weight for w[9] = -4
xn[10] = 1,  new weight for w[10] = 0
xn[11] = 1,  new weight for w[11] = -6
xn[12] = 1,  new weight for w[12] = -4
xn[13] = 1,  new weight for w[13] = -6
xn[14] = -1,  new weight for w[14] = -2
xn[15] = 1,  new weight for w[15] = -2
xn[16] = 1,  new weight for w[16] = -2
xn[17] = 1,  new weight for w[17] = -4
xn[18] = 1,  new weight for w[18] = -4
xn[19] = -1,  new weight for w[19] = 0
xn[0] = 1,  new weight for w[0] = -21
xn[1] = -1,  new weight for w[1] = 3
xn[2] = -1,  new weight for w[2] = 5
xn[3] = 1,  new weight for w[3] = -5
xn[4] = -1,  new weight for w[4] = 1
xn[5] = 1,  new weight for w[5] = -1
xn[6] = 1,  new weight for w[6] = -1
xn[7] = 1,  new weight for w[7] = -1
xn[8] = 1,  new weight for w[8] = 1
xn[9] = 1,  new weight for w[9] = -5
xn[10] = 1,  new weight for w[10] = -1
xn[11] = 1,  new weight for w[11] = -7
xn[12] = 1,  new weight for w[12] = -5
xn[13] = 1,  new weight for w[13] = -7
xn[14] = -1,  new weight for w[14] = -1
xn[15] = 1,  new weight for w[15] = -3
xn[16] = 1,  new weight for w[16] = -3
xn[17] = 1,  new weight for w[17] = -5
xn[18] = 1,  new weight for w[18] = -5
xn[19] = -1,  new weight for w[19] = 1
xn[0] = 1,  new weight for w[0] = -21
xn[1] = -1,  new weight for w[1] = 3
xn[2] = -1,  new weight for w[2] = 5
xn[3] = 1,  new weight for w[3] = -5
xn[4] = -1,  new weight for w[4] = 1
xn[5] = 1,  new weight for w[5] = -1
xn[6] = 1,  new weight for w[6] = -1
xn[7] = 1,  new weight for w[7] = -1
xn[8] = 1,  new weight for w[8] = 1
xn[9] = 1,  new weight for w[9] = -5
xn[10] = 1,  new weight for w[10] = -1
xn[11] = 1,  new weight for w[11] = -7
xn[12] = 1,  new weight for w[12] = -5
xn[13] = 1,  new weight for w[13] = -7
xn[14] = -1,  new weight for w[14] = -1
xn[15] = 1,  new weight for w[15] = -3
xn[16] = 1,  new weight for w[16] = -3
xn[17] = 1,  new weight for w[17] = -5
xn[18] = 1,  new weight for w[18] = -5
xn[19] = -1,  new weight for w[19] = 1
xn[0] = 1,  new weight for w[0] = -22
xn[1] = -1,  new weight for w[1] = 4
xn[2] = -1,  new weight for w[2] = 6
xn[3] = 1,  new weight for w[3] = -6
xn[4] = -1,  new weight for w[4] = 2
xn[5] = 1,  new weight for w[5] = -2
xn[6] = 1,  new weight for w[6] = -2
xn[7] = 1,  new weight for w[7] = -2
xn[8] = 1,  new weight for w[8] = 0
xn[9] = 1,  new weight for w[9] = -6
xn[10] = 1,  new weight for w[10] = -2
xn[11] = 1,  new weight for w[11] = -8
xn[12] = 1,  new weight for w[12] = -6
xn[13] = 1,  new weight for w[13] = -8
xn[14] = -1,  new weight for w[14] = 0
xn[15] = 1,  new weight for w[15] = -4
xn[16] = 1,  new weight for w[16] = -4
xn[17] = 1,  new weight for w[17] = -6
xn[18] = 1,  new weight for w[18] = -6
xn[19] = -1,  new weight for w[19] = 2
xn[0] = 1,  new weight for w[0] = -22
xn[1] = -1,  new weight for w[1] = 4
xn[2] = -1,  new weight for w[2] = 6
xn[3] = 1,  new weight for w[3] = -6
xn[4] = -1,  new weight for w[4] = 2
xn[5] = 1,  new weight for w[5] = -2
xn[6] = 1,  new weight for w[6] = -2
xn[7] = 1,  new weight for w[7] = -2
xn[8] = 1,  new weight for w[8] = 0
xn[9] = 1,  new weight for w[9] = -6
xn[10] = 1,  new weight for w[10] = -2
xn[11] = 1,  new weight for w[11] = -8
xn[12] = 1,  new weight for w[12] = -6
xn[13] = 1,  new weight for w[13] = -8
xn[14] = -1,  new weight for w[14] = 0
xn[15] = 1,  new weight for w[15] = -4
xn[16] = 1,  new weight for w[16] = -4
xn[17] = 1,  new weight for w[17] = -6
xn[18] = 1,  new weight for w[18] = -6
xn[19] = -1,  new weight for w[19] = 2
xn[0] = 1,  new weight for w[0] = -23
xn[1] = -1,  new weight for w[1] = 5
xn[2] = -1,  new weight for w[2] = 7
xn[3] = 1,  new weight for w[3] = -7
xn[4] = -1,  new weight for w[4] = 3
xn[5] = 1,  new weight for w[5] = -3
xn[6] = 1,  new weight for w[6] = -3
xn[7] = 1,  new weight for w[7] = -3
xn[8] = 1,  new weight for w[8] = -1
xn[9] = 1,  new weight for w[9] = -7
xn[10] = 1,  new weight for w[10] = -3
xn[11] = 1,  new weight for w[11] = -9
xn[12] = 1,  new weight for w[12] = -7
xn[13] = 1,  new weight for w[13] = -9
xn[14] = -1,  new weight for w[14] = 1
xn[15] = 1,  new weight for w[15] = -5
xn[16] = 1,  new weight for w[16] = -5
xn[17] = 1,  new weight for w[17] = -7
xn[18] = 1,  new weight for w[18] = -7
xn[19] = -1,  new weight for w[19] = 3
xn[0] = 1,  new weight for w[0] = -23
xn[1] = -1,  new weight for w[1] = 5
xn[2] = -1,  new weight for w[2] = 7
xn[3] = 1,  new weight for w[3] = -7
xn[4] = -1,  new weight for w[4] = 3
xn[5] = 1,  new weight for w[5] = -3
xn[6] = 1,  new weight for w[6] = -3
xn[7] = 1,  new weight for w[7] = -3
xn[8] = 1,  new weight for w[8] = -1
xn[9] = 1,  new weight for w[9] = -7
xn[10] = 1,  new weight for w[10] = -3
xn[11] = 1,  new weight for w[11] = -9
xn[12] = 1,  new weight for w[12] = -7
xn[13] = 1,  new weight for w[13] = -9
xn[14] = -1,  new weight for w[14] = 1
xn[15] = 1,  new weight for w[15] = -5
xn[16] = 1,  new weight for w[16] = -5
xn[17] = 1,  new weight for w[17] = -7
xn[18] = 1,  new weight for w[18] = -7
xn[19] = -1,  new weight for w[19] = 3
xn[0] = 1,  new weight for w[0] = -24
xn[1] = 1,  new weight for w[1] = 4
xn[2] = -1,  new weight for w[2] = 8
xn[3] = -1,  new weight for w[3] = -6
xn[4] = -1,  new weight for w[4] = 4
xn[5] = -1,  new weight for w[5] = -2
xn[6] = -1,  new weight for w[6] = -2
xn[7] = -1,  new weight for w[7] = -2
xn[8] = -1,  new weight for w[8] = 0
xn[9] = -1,  new weight for w[9] = -6
xn[10] = -1,  new weight for w[10] = -2
xn[11] = -1,  new weight for w[11] = -8
xn[12] = -1,  new weight for w[12] = -6
xn[13] = -1,  new weight for w[13] = -8
xn[14] = -1,  new weight for w[14] = 2
xn[15] = 1,  new weight for w[15] = -6
xn[16] = -1,  new weight for w[16] = -4
xn[17] = 1,  new weight for w[17] = -8
xn[18] = 1,  new weight for w[18] = -8
xn[19] = 1,  new weight for w[19] = 2
xn[0] = 1,  new weight for w[0] = -24
xn[1] = 1,  new weight for w[1] = 4
xn[2] = -1,  new weight for w[2] = 8
xn[3] = -1,  new weight for w[3] = -6
xn[4] = -1,  new weight for w[4] = 4
xn[5] = -1,  new weight for w[5] = -2
xn[6] = -1,  new weight for w[6] = -2
xn[7] = -1,  new weight for w[7] = -2
xn[8] = -1,  new weight for w[8] = 0
xn[9] = -1,  new weight for w[9] = -6
xn[10] = -1,  new weight for w[10] = -2
xn[11] = -1,  new weight for w[11] = -8
xn[12] = -1,  new weight for w[12] = -6
xn[13] = -1,  new weight for w[13] = -8
xn[14] = -1,  new weight for w[14] = 2
xn[15] = 1,  new weight for w[15] = -6
xn[16] = -1,  new weight for w[16] = -4
xn[17] = 1,  new weight for w[17] = -8
xn[18] = 1,  new weight for w[18] = -8
xn[19] = 1,  new weight for w[19] = 2
xn[0] = 1,  new weight for w[0] = -25
xn[1] = 1,  new weight for w[1] = 3
xn[2] = -1,  new weight for w[2] = 9
xn[3] = 1,  new weight for w[3] = -7
xn[4] = -1,  new weight for w[4] = 5
xn[5] = -1,  new weight for w[5] = -1
xn[6] = -1,  new weight for w[6] = -1
xn[7] = -1,  new weight for w[7] = -1
xn[8] = -1,  new weight for w[8] = 1
xn[9] = -1,  new weight for w[9] = -5
xn[10] = -1,  new weight for w[10] = -1
xn[11] = -1,  new weight for w[11] = -7
xn[12] = -1,  new weight for w[12] = -5
xn[13] = -1,  new weight for w[13] = -7
xn[14] = -1,  new weight for w[14] = 3
xn[15] = -1,  new weight for w[15] = -5
xn[16] = -1,  new weight for w[16] = -3
xn[17] = 1,  new weight for w[17] = -9
xn[18] = -1,  new weight for w[18] = -7
xn[19] = 1,  new weight for w[19] = 1
xn[0] = 1,  new weight for w[0] = -25
xn[1] = 1,  new weight for w[1] = 3
xn[2] = -1,  new weight for w[2] = 9
xn[3] = 1,  new weight for w[3] = -7
xn[4] = -1,  new weight for w[4] = 5
xn[5] = -1,  new weight for w[5] = -1
xn[6] = -1,  new weight for w[6] = -1
xn[7] = -1,  new weight for w[7] = -1
xn[8] = -1,  new weight for w[8] = 1
xn[9] = -1,  new weight for w[9] = -5
xn[10] = -1,  new weight for w[10] = -1
xn[11] = -1,  new weight for w[11] = -7
xn[12] = -1,  new weight for w[12] = -5
xn[13] = -1,  new weight for w[13] = -7
xn[14] = -1,  new weight for w[14] = 3
xn[15] = -1,  new weight for w[15] = -5
xn[16] = -1,  new weight for w[16] = -3
xn[17] = 1,  new weight for w[17] = -9
xn[18] = -1,  new weight for w[18] = -7
xn[19] = 1,  new weight for w[19] = 1
xn[0] = 1,  new weight for w[0] = -26
xn[1] = 1,  new weight for w[1] = 2
xn[2] = -1,  new weight for w[2] = 10
xn[3] = 1,  new weight for w[3] = -8
xn[4] = -1,  new weight for w[4] = 6
xn[5] = 1,  new weight for w[5] = -2
xn[6] = -1,  new weight for w[6] = 0
xn[7] = -1,  new weight for w[7] = 0
xn[8] = -1,  new weight for w[8] = 2
xn[9] = -1,  new weight for w[9] = -4
xn[10] = -1,  new weight for w[10] = 0
xn[11] = -1,  new weight for w[11] = -6
xn[12] = -1,  new weight for w[12] = -4
xn[13] = -1,  new weight for w[13] = -6
xn[14] = -1,  new weight for w[14] = 4
xn[15] = -1,  new weight for w[15] = -4
xn[16] = -1,  new weight for w[16] = -2
xn[17] = -1,  new weight for w[17] = -8
xn[18] = -1,  new weight for w[18] = -6
xn[19] = 1,  new weight for w[19] = 0
xn[0] = 1,  new weight for w[0] = -26
xn[1] = 1,  new weight for w[1] = 2
xn[2] = -1,  new weight for w[2] = 10
xn[3] = 1,  new weight for w[3] = -8
xn[4] = -1,  new weight for w[4] = 6
xn[5] = 1,  new weight for w[5] = -2
xn[6] = -1,  new weight for w[6] = 0
xn[7] = -1,  new weight for w[7] = 0
xn[8] = -1,  new weight for w[8] = 2
xn[9] = -1,  new weight for w[9] = -4
xn[10] = -1,  new weight for w[10] = 0
xn[11] = -1,  new weight for w[11] = -6
xn[12] = -1,  new weight for w[12] = -4
xn[13] = -1,  new weight for w[13] = -6
xn[14] = -1,  new weight for w[14] = 4
xn[15] = -1,  new weight for w[15] = -4
xn[16] = -1,  new weight for w[16] = -2
xn[17] = -1,  new weight for w[17] = -8
xn[18] = -1,  new weight for w[18] = -6
xn[19] = 1,  new weight for w[19] = 0
xn[0] = 1,  new weight for w[0] = -27
xn[1] = 1,  new weight for w[1] = 1
xn[2] = -1,  new weight for w[2] = 11
xn[3] = 1,  new weight for w[3] = -9
xn[4] = -1,  new weight for w[4] = 7
xn[5] = 1,  new weight for w[5] = -3
xn[6] = -1,  new weight for w[6] = 1
xn[7] = 1,  new weight for w[7] = -1
xn[8] = -1,  new weight for w[8] = 3
xn[9] = -1,  new weight for w[9] = -3
xn[10] = -1,  new weight for w[10] = 1
xn[11] = -1,  new weight for w[11] = -5
xn[12] = -1,  new weight for w[12] = -3
xn[13] = -1,  new weight for w[13] = -5
xn[14] = -1,  new weight for w[14] = 5
xn[15] = -1,  new weight for w[15] = -3
xn[16] = -1,  new weight for w[16] = -1
xn[17] = -1,  new weight for w[17] = -7
xn[18] = -1,  new weight for w[18] = -5
xn[19] = -1,  new weight for w[19] = 1
xn[0] = 1,  new weight for w[0] = -27
xn[1] = 1,  new weight for w[1] = 1
xn[2] = -1,  new weight for w[2] = 11
xn[3] = 1,  new weight for w[3] = -9
xn[4] = -1,  new weight for w[4] = 7
xn[5] = 1,  new weight for w[5] = -3
xn[6] = -1,  new weight for w[6] = 1
xn[7] = 1,  new weight for w[7] = -1
xn[8] = -1,  new weight for w[8] = 3
xn[9] = -1,  new weight for w[9] = -3
xn[10] = -1,  new weight for w[10] = 1
xn[11] = -1,  new weight for w[11] = -5
xn[12] = -1,  new weight for w[12] = -3
xn[13] = -1,  new weight for w[13] = -5
xn[14] = -1,  new weight for w[14] = 5
xn[15] = -1,  new weight for w[15] = -3
xn[16] = -1,  new weight for w[16] = -1
xn[17] = -1,  new weight for w[17] = -7
xn[18] = -1,  new weight for w[18] = -5
xn[19] = -1,  new weight for w[19] = 1
xn[0] = 1,  new weight for w[0] = -28
xn[1] = 1,  new weight for w[1] = 0
xn[2] = -1,  new weight for w[2] = 12
xn[3] = 1,  new weight for w[3] = -10
xn[4] = -1,  new weight for w[4] = 8
xn[5] = 1,  new weight for w[5] = -4
xn[6] = -1,  new weight for w[6] = 2
xn[7] = 1,  new weight for w[7] = -2
xn[8] = -1,  new weight for w[8] = 4
xn[9] = 1,  new weight for w[9] = -4
xn[10] = -1,  new weight for w[10] = 2
xn[11] = -1,  new weight for w[11] = -4
xn[12] = -1,  new weight for w[12] = -2
xn[13] = -1,  new weight for w[13] = -4
xn[14] = -1,  new weight for w[14] = 6
xn[15] = -1,  new weight for w[15] = -2
xn[16] = -1,  new weight for w[16] = 0
xn[17] = -1,  new weight for w[17] = -6
xn[18] = -1,  new weight for w[18] = -4
xn[19] = -1,  new weight for w[19] = 2
xn[0] = 1,  new weight for w[0] = -28
xn[1] = 1,  new weight for w[1] = 0
xn[2] = -1,  new weight for w[2] = 12
xn[3] = 1,  new weight for w[3] = -10
xn[4] = -1,  new weight for w[4] = 8
xn[5] = 1,  new weight for w[5] = -4
xn[6] = -1,  new weight for w[6] = 2
xn[7] = 1,  new weight for w[7] = -2
xn[8] = -1,  new weight for w[8] = 4
xn[9] = 1,  new weight for w[9] = -4
xn[10] = -1,  new weight for w[10] = 2
xn[11] = -1,  new weight for w[11] = -4
xn[12] = -1,  new weight for w[12] = -2
xn[13] = -1,  new weight for w[13] = -4
xn[14] = -1,  new weight for w[14] = 6
xn[15] = -1,  new weight for w[15] = -2
xn[16] = -1,  new weight for w[16] = 0
xn[17] = -1,  new weight for w[17] = -6
xn[18] = -1,  new weight for w[18] = -4
xn[19] = -1,  new weight for w[19] = 2
xn[0] = 1,  new weight for w[0] = -29
xn[1] = 1,  new weight for w[1] = -1
xn[2] = -1,  new weight for w[2] = 13
xn[3] = 1,  new weight for w[3] = -11
xn[4] = -1,  new weight for w[4] = 9
xn[5] = 1,  new weight for w[5] = -5
xn[6] = -1,  new weight for w[6] = 3
xn[7] = 1,  new weight for w[7] = -3
xn[8] = -1,  new weight for w[8] = 5
xn[9] = 1,  new weight for w[9] = -5
xn[10] = -1,  new weight for w[10] = 3
xn[11] = 1,  new weight for w[11] = -5
xn[12] = -1,  new weight for w[12] = -1
xn[13] = -1,  new weight for w[13] = -3
xn[14] = -1,  new weight for w[14] = 7
xn[15] = -1,  new weight for w[15] = -1
xn[16] = -1,  new weight for w[16] = 1
xn[17] = -1,  new weight for w[17] = -5
xn[18] = -1,  new weight for w[18] = -3
xn[19] = -1,  new weight for w[19] = 3
xn[0] = 1,  new weight for w[0] = -29
xn[1] = 1,  new weight for w[1] = -1
xn[2] = -1,  new weight for w[2] = 13
xn[3] = 1,  new weight for w[3] = -11
xn[4] = -1,  new weight for w[4] = 9
xn[5] = 1,  new weight for w[5] = -5
xn[6] = -1,  new weight for w[6] = 3
xn[7] = 1,  new weight for w[7] = -3
xn[8] = -1,  new weight for w[8] = 5
xn[9] = 1,  new weight for w[9] = -5
xn[10] = -1,  new weight for w[10] = 3
xn[11] = 1,  new weight for w[11] = -5
xn[12] = -1,  new weight for w[12] = -1
xn[13] = -1,  new weight for w[13] = -3
xn[14] = -1,  new weight for w[14] = 7
xn[15] = -1,  new weight for w[15] = -1
xn[16] = -1,  new weight for w[16] = 1
xn[17] = -1,  new weight for w[17] = -5
xn[18] = -1,  new weight for w[18] = -3
xn[19] = -1,  new weight for w[19] = 3
xn[0] = 1,  new weight for w[0] = -30
xn[1] = 1,  new weight for w[1] = -2
xn[2] = -1,  new weight for w[2] = 14
xn[3] = 1,  new weight for w[3] = -12
xn[4] = -1,  new weight for w[4] = 10
xn[5] = 1,  new weight for w[5] = -6
xn[6] = -1,  new weight for w[6] = 4
xn[7] = 1,  new weight for w[7] = -4
xn[8] = -1,  new weight for w[8] = 6
xn[9] = 1,  new weight for w[9] = -6
xn[10] = -1,  new weight for w[10] = 4
xn[11] = 1,  new weight for w[11] = -6
xn[12] = -1,  new weight for w[12] = 0
xn[13] = 1,  new weight for w[13] = -4
xn[14] = -1,  new weight for w[14] = 8
xn[15] = -1,  new weight for w[15] = 0
xn[16] = -1,  new weight for w[16] = 2
xn[17] = -1,  new weight for w[17] = -4
xn[18] = -1,  new weight for w[18] = -2
xn[19] = -1,  new weight for w[19] = 4
xn[0] = 1,  new weight for w[0] = -30
xn[1] = 1,  new weight for w[1] = -2
xn[2] = -1,  new weight for w[2] = 14
xn[3] = 1,  new weight for w[3] = -12
xn[4] = -1,  new weight for w[4] = 10
xn[5] = 1,  new weight for w[5] = -6
xn[6] = -1,  new weight for w[6] = 4
xn[7] = 1,  new weight for w[7] = -4
xn[8] = -1,  new weight for w[8] = 6
xn[9] = 1,  new weight for w[9] = -6
xn[10] = -1,  new weight for w[10] = 4
xn[11] = 1,  new weight for w[11] = -6
xn[12] = -1,  new weight for w[12] = 0
xn[13] = 1,  new weight for w[13] = -4
xn[14] = -1,  new weight for w[14] = 8
xn[15] = -1,  new weight for w[15] = 0
xn[16] = -1,  new weight for w[16] = 2
xn[17] = -1,  new weight for w[17] = -4
xn[18] = -1,  new weight for w[18] = -2
xn[19] = -1,  new weight for w[19] = 4
xn[0] = 1,  new weight for w[0] = -31
xn[1] = 1,  new weight for w[1] = -3
xn[2] = -1,  new weight for w[2] = 15
xn[3] = 1,  new weight for w[3] = -13
xn[4] = -1,  new weight for w[4] = 11
xn[5] = 1,  new weight for w[5] = -7
xn[6] = -1,  new weight for w[6] = 5
xn[7] = 1,  new weight for w[7] = -5
xn[8] = -1,  new weight for w[8] = 7
xn[9] = 1,  new weight for w[9] = -7
xn[10] = -1,  new weight for w[10] = 5
xn[11] = 1,  new weight for w[11] = -7
xn[12] = -1,  new weight for w[12] = 1
xn[13] = 1,  new weight for w[13] = -5
xn[14] = -1,  new weight for w[14] = 9
xn[15] = -1,  new weight for w[15] = 1
xn[16] = -1,  new weight for w[16] = 3
xn[17] = -1,  new weight for w[17] = -3
xn[18] = -1,  new weight for w[18] = -1
xn[19] = -1,  new weight for w[19] = 5
xn[0] = 1,  new weight for w[0] = -31
xn[1] = 1,  new weight for w[1] = -3
xn[2] = -1,  new weight for w[2] = 15
xn[3] = 1,  new weight for w[3] = -13
xn[4] = -1,  new weight for w[4] = 11
xn[5] = 1,  new weight for w[5] = -7
xn[6] = -1,  new weight for w[6] = 5
xn[7] = 1,  new weight for w[7] = -5
xn[8] = -1,  new weight for w[8] = 7
xn[9] = 1,  new weight for w[9] = -7
xn[10] = -1,  new weight for w[10] = 5
xn[11] = 1,  new weight for w[11] = -7
xn[12] = -1,  new weight for w[12] = 1
xn[13] = 1,  new weight for w[13] = -5
xn[14] = -1,  new weight for w[14] = 9
xn[15] = -1,  new weight for w[15] = 1
xn[16] = -1,  new weight for w[16] = 3
xn[17] = -1,  new weight for w[17] = -3
xn[18] = -1,  new weight for w[18] = -1
xn[19] = -1,  new weight for w[19] = 5
xn[0] = 1,  new weight for w[0] = -32
xn[1] = 1,  new weight for w[1] = -4
xn[2] = -1,  new weight for w[2] = 16
xn[3] = 1,  new weight for w[3] = -14
xn[4] = -1,  new weight for w[4] = 12
xn[5] = 1,  new weight for w[5] = -8
xn[6] = -1,  new weight for w[6] = 6
xn[7] = 1,  new weight for w[7] = -6
xn[8] = -1,  new weight for w[8] = 8
xn[9] = 1,  new weight for w[9] = -8
xn[10] = -1,  new weight for w[10] = 6
xn[11] = 1,  new weight for w[11] = -8
xn[12] = -1,  new weight for w[12] = 2
xn[13] = 1,  new weight for w[13] = -6
xn[14] = -1,  new weight for w[14] = 10
xn[15] = 1,  new weight for w[15] = 0
xn[16] = -1,  new weight for w[16] = 4
xn[17] = -1,  new weight for w[17] = -2
xn[18] = -1,  new weight for w[18] = 0
xn[19] = -1,  new weight for w[19] = 6
xn[0] = 1,  new weight for w[0] = -32
xn[1] = 1,  new weight for w[1] = -4
xn[2] = -1,  new weight for w[2] = 16
xn[3] = 1,  new weight for w[3] = -14
xn[4] = -1,  new weight for w[4] = 12
xn[5] = 1,  new weight for w[5] = -8
xn[6] = -1,  new weight for w[6] = 6
xn[7] = 1,  new weight for w[7] = -6
xn[8] = -1,  new weight for w[8] = 8
xn[9] = 1,  new weight for w[9] = -8
xn[10] = -1,  new weight for w[10] = 6
xn[11] = 1,  new weight for w[11] = -8
xn[12] = -1,  new weight for w[12] = 2
xn[13] = 1,  new weight for w[13] = -6
xn[14] = -1,  new weight for w[14] = 10
xn[15] = 1,  new weight for w[15] = 0
xn[16] = -1,  new weight for w[16] = 4
xn[17] = -1,  new weight for w[17] = -2
xn[18] = -1,  new weight for w[18] = 0
xn[19] = -1,  new weight for w[19] = 6
xn[0] = 1,  new weight for w[0] = -33
xn[1] = 1,  new weight for w[1] = -5
xn[2] = -1,  new weight for w[2] = 17
xn[3] = 1,  new weight for w[3] = -15
xn[4] = -1,  new weight for w[4] = 13
xn[5] = 1,  new weight for w[5] = -9
xn[6] = -1,  new weight for w[6] = 7
xn[7] = 1,  new weight for w[7] = -7
xn[8] = -1,  new weight for w[8] = 9
xn[9] = 1,  new weight for w[9] = -9
xn[10] = -1,  new weight for w[10] = 7
xn[11] = 1,  new weight for w[11] = -9
xn[12] = -1,  new weight for w[12] = 3
xn[13] = 1,  new weight for w[13] = -7
xn[14] = -1,  new weight for w[14] = 11
xn[15] = 1,  new weight for w[15] = -1
xn[16] = -1,  new weight for w[16] = 5
xn[17] = -1,  new weight for w[17] = -1
xn[18] = -1,  new weight for w[18] = 1
xn[19] = -1,  new weight for w[19] = 7
xn[0] = 1,  new weight for w[0] = -33
xn[1] = 1,  new weight for w[1] = -5
xn[2] = -1,  new weight for w[2] = 17
xn[3] = 1,  new weight for w[3] = -15
xn[4] = -1,  new weight for w[4] = 13
xn[5] = 1,  new weight for w[5] = -9
xn[6] = -1,  new weight for w[6] = 7
xn[7] = 1,  new weight for w[7] = -7
xn[8] = -1,  new weight for w[8] = 9
xn[9] = 1,  new weight for w[9] = -9
xn[10] = -1,  new weight for w[10] = 7
xn[11] = 1,  new weight for w[11] = -9
xn[12] = -1,  new weight for w[12] = 3
xn[13] = 1,  new weight for w[13] = -7
xn[14] = -1,  new weight for w[14] = 11
xn[15] = 1,  new weight for w[15] = -1
xn[16] = -1,  new weight for w[16] = 5
xn[17] = -1,  new weight for w[17] = -1
xn[18] = -1,  new weight for w[18] = 1
xn[19] = -1,  new weight for w[19] = 7
xn[0] = 1,  new weight for w[0] = -34
xn[1] = 1,  new weight for w[1] = -6
xn[2] = -1,  new weight for w[2] = 18
xn[3] = 1,  new weight for w[3] = -16
xn[4] = -1,  new weight for w[4] = 14
xn[5] = 1,  new weight for w[5] = -10
xn[6] = -1,  new weight for w[6] = 8
xn[7] = 1,  new weight for w[7] = -8
xn[8] = -1,  new weight for w[8] = 10
xn[9] = 1,  new weight for w[9] = -10
xn[10] = -1,  new weight for w[10] = 8
xn[11] = 1,  new weight for w[11] = -10
xn[12] = -1,  new weight for w[12] = 4
xn[13] = 1,  new weight for w[13] = -8
xn[14] = -1,  new weight for w[14] = 12
xn[15] = 1,  new weight for w[15] = -2
xn[16] = -1,  new weight for w[16] = 6
xn[17] = 1,  new weight for w[17] = -2
xn[18] = -1,  new weight for w[18] = 2
xn[19] = -1,  new weight for w[19] = 8
xn[0] = 1,  new weight for w[0] = -34
xn[1] = 1,  new weight for w[1] = -6
xn[2] = -1,  new weight for w[2] = 18
xn[3] = 1,  new weight for w[3] = -16
xn[4] = -1,  new weight for w[4] = 14
xn[5] = 1,  new weight for w[5] = -10
xn[6] = -1,  new weight for w[6] = 8
xn[7] = 1,  new weight for w[7] = -8
xn[8] = -1,  new weight for w[8] = 10
xn[9] = 1,  new weight for w[9] = -10
xn[10] = -1,  new weight for w[10] = 8
xn[11] = 1,  new weight for w[11] = -10
xn[12] = -1,  new weight for w[12] = 4
xn[13] = 1,  new weight for w[13] = -8
xn[14] = -1,  new weight for w[14] = 12
xn[15] = 1,  new weight for w[15] = -2
xn[16] = -1,  new weight for w[16] = 6
xn[17] = 1,  new weight for w[17] = -2
xn[18] = -1,  new weight for w[18] = 2
xn[19] = -1,  new weight for w[19] = 8
xn[0] = 1,  new weight for w[0] = -35
xn[1] = 1,  new weight for w[1] = -7
xn[2] = -1,  new weight for w[2] = 19
xn[3] = 1,  new weight for w[3] = -17
xn[4] = -1,  new weight for w[4] = 15
xn[5] = 1,  new weight for w[5] = -11
xn[6] = -1,  new weight for w[6] = 9
xn[7] = 1,  new weight for w[7] = -9
xn[8] = -1,  new weight for w[8] = 11
xn[9] = 1,  new weight for w[9] = -11
xn[10] = -1,  new weight for w[10] = 9
xn[11] = 1,  new weight for w[11] = -11
xn[12] = -1,  new weight for w[12] = 5
xn[13] = 1,  new weight for w[13] = -9
xn[14] = -1,  new weight for w[14] = 13
xn[15] = 1,  new weight for w[15] = -3
xn[16] = -1,  new weight for w[16] = 7
xn[17] = 1,  new weight for w[17] = -3
xn[18] = -1,  new weight for w[18] = 3
xn[19] = 1,  new weight for w[19] = 7
xn[0] = 1,  new weight for w[0] = -35
xn[1] = 1,  new weight for w[1] = -7
xn[2] = -1,  new weight for w[2] = 19
xn[3] = 1,  new weight for w[3] = -17
xn[4] = -1,  new weight for w[4] = 15
xn[5] = 1,  new weight for w[5] = -11
xn[6] = -1,  new weight for w[6] = 9
xn[7] = 1,  new weight for w[7] = -9
xn[8] = -1,  new weight for w[8] = 11
xn[9] = 1,  new weight for w[9] = -11
xn[10] = -1,  new weight for w[10] = 9
xn[11] = 1,  new weight for w[11] = -11
xn[12] = -1,  new weight for w[12] = 5
xn[13] = 1,  new weight for w[13] = -9
xn[14] = -1,  new weight for w[14] = 13
xn[15] = 1,  new weight for w[15] = -3
xn[16] = -1,  new weight for w[16] = 7
xn[17] = 1,  new weight for w[17] = -3
xn[18] = -1,  new weight for w[18] = 3
xn[19] = 1,  new weight for w[19] = 7
xn[0] = 1,  new weight for w[0] = -36
xn[1] = 1,  new weight for w[1] = -8
xn[2] = -1,  new weight for w[2] = 20
xn[3] = 1,  new weight for w[3] = -18
xn[4] = -1,  new weight for w[4] = 16
xn[5] = 1,  new weight for w[5] = -12
xn[6] = -1,  new weight for w[6] = 10
xn[7] = 1,  new weight for w[7] = -10
xn[8] = -1,  new weight for w[8] = 12
xn[9] = 1,  new weight for w[9] = -12
xn[10] = -1,  new weight for w[10] = 10
xn[11] = 1,  new weight for w[11] = -12
xn[12] = -1,  new weight for w[12] = 6
xn[13] = 1,  new weight for w[13] = -10
xn[14] = -1,  new weight for w[14] = 14
xn[15] = 1,  new weight for w[15] = -4
xn[16] = -1,  new weight for w[16] = 8
xn[17] = 1,  new weight for w[17] = -4
xn[18] = -1,  new weight for w[18] = 4
xn[19] = 1,  new weight for w[19] = 6
xn[0] = 1,  new weight for w[0] = -36
xn[1] = 1,  new weight for w[1] = -8
xn[2] = -1,  new weight for w[2] = 20
xn[3] = 1,  new weight for w[3] = -18
xn[4] = -1,  new weight for w[4] = 16
xn[5] = 1,  new weight for w[5] = -12
xn[6] = -1,  new weight for w[6] = 10
xn[7] = 1,  new weight for w[7] = -10
xn[8] = -1,  new weight for w[8] = 12
xn[9] = 1,  new weight for w[9] = -12
xn[10] = -1,  new weight for w[10] = 10
xn[11] = 1,  new weight for w[11] = -12
xn[12] = -1,  new weight for w[12] = 6
xn[13] = 1,  new weight for w[13] = -10
xn[14] = -1,  new weight for w[14] = 14
xn[15] = 1,  new weight for w[15] = -4
xn[16] = -1,  new weight for w[16] = 8
xn[17] = 1,  new weight for w[17] = -4
xn[18] = -1,  new weight for w[18] = 4
xn[19] = 1,  new weight for w[19] = 6
xn[0] = 1,  new weight for w[0] = -37
xn[1] = 1,  new weight for w[1] = -9
xn[2] = -1,  new weight for w[2] = 21
xn[3] = 1,  new weight for w[3] = -19
xn[4] = -1,  new weight for w[4] = 17
xn[5] = 1,  new weight for w[5] = -13
xn[6] = -1,  new weight for w[6] = 11
xn[7] = 1,  new weight for w[7] = -11
xn[8] = -1,  new weight for w[8] = 13
xn[9] = 1,  new weight for w[9] = -13
xn[10] = -1,  new weight for w[10] = 11
xn[11] = 1,  new weight for w[11] = -13
xn[12] = -1,  new weight for w[12] = 7
xn[13] = 1,  new weight for w[13] = -11
xn[14] = -1,  new weight for w[14] = 15
xn[15] = 1,  new weight for w[15] = -5
xn[16] = -1,  new weight for w[16] = 9
xn[17] = 1,  new weight for w[17] = -5
xn[18] = -1,  new weight for w[18] = 5
xn[19] = 1,  new weight for w[19] = 5
xn[0] = 1,  new weight for w[0] = -37
xn[1] = 1,  new weight for w[1] = -9
xn[2] = -1,  new weight for w[2] = 21
xn[3] = 1,  new weight for w[3] = -19
xn[4] = -1,  new weight for w[4] = 17
xn[5] = 1,  new weight for w[5] = -13
xn[6] = -1,  new weight for w[6] = 11
xn[7] = 1,  new weight for w[7] = -11
xn[8] = -1,  new weight for w[8] = 13
xn[9] = 1,  new weight for w[9] = -13
xn[10] = -1,  new weight for w[10] = 11
xn[11] = 1,  new weight for w[11] = -13
xn[12] = -1,  new weight for w[12] = 7
xn[13] = 1,  new weight for w[13] = -11
xn[14] = -1,  new weight for w[14] = 15
xn[15] = 1,  new weight for w[15] = -5
xn[16] = -1,  new weight for w[16] = 9
xn[17] = 1,  new weight for w[17] = -5
xn[18] = -1,  new weight for w[18] = 5
xn[19] = 1,  new weight for w[19] = 5
xn[0] = 1,  new weight for w[0] = -38
xn[1] = 1,  new weight for w[1] = -10
xn[2] = -1,  new weight for w[2] = 22
xn[3] = 1,  new weight for w[3] = -20
xn[4] = -1,  new weight for w[4] = 18
xn[5] = 1,  new weight for w[5] = -14
xn[6] = -1,  new weight for w[6] = 12
xn[7] = 1,  new weight for w[7] = -12
xn[8] = -1,  new weight for w[8] = 14
xn[9] = 1,  new weight for w[9] = -14
xn[10] = -1,  new weight for w[10] = 12
xn[11] = 1,  new weight for w[11] = -14
xn[12] = -1,  new weight for w[12] = 8
xn[13] = 1,  new weight for w[13] = -12
xn[14] = -1,  new weight for w[14] = 16
xn[15] = 1,  new weight for w[15] = -6
xn[16] = -1,  new weight for w[16] = 10
xn[17] = 1,  new weight for w[17] = -6
xn[18] = -1,  new weight for w[18] = 6
xn[19] = 1,  new weight for w[19] = 4
xn[0] = 1,  new weight for w[0] = -38
xn[1] = 1,  new weight for w[1] = -10
xn[2] = -1,  new weight for w[2] = 22
xn[3] = 1,  new weight for w[3] = -20
xn[4] = -1,  new weight for w[4] = 18
xn[5] = 1,  new weight for w[5] = -14
xn[6] = -1,  new weight for w[6] = 12
xn[7] = 1,  new weight for w[7] = -12
xn[8] = -1,  new weight for w[8] = 14
xn[9] = 1,  new weight for w[9] = -14
xn[10] = -1,  new weight for w[10] = 12
xn[11] = 1,  new weight for w[11] = -14
xn[12] = -1,  new weight for w[12] = 8
xn[13] = 1,  new weight for w[13] = -12
xn[14] = -1,  new weight for w[14] = 16
xn[15] = 1,  new weight for w[15] = -6
xn[16] = -1,  new weight for w[16] = 10
xn[17] = 1,  new weight for w[17] = -6
xn[18] = -1,  new weight for w[18] = 6
xn[19] = 1,  new weight for w[19] = 4
xn[0] = 1,  new weight for w[0] = -39
xn[1] = 1,  new weight for w[1] = -11
xn[2] = -1,  new weight for w[2] = 23
xn[3] = 1,  new weight for w[3] = -21
xn[4] = -1,  new weight for w[4] = 19
xn[5] = 1,  new weight for w[5] = -15
xn[6] = -1,  new weight for w[6] = 13
xn[7] = 1,  new weight for w[7] = -13
xn[8] = -1,  new weight for w[8] = 15
xn[9] = 1,  new weight for w[9] = -15
xn[10] = -1,  new weight for w[10] = 13
xn[11] = 1,  new weight for w[11] = -15
xn[12] = -1,  new weight for w[12] = 9
xn[13] = 1,  new weight for w[13] = -13
xn[14] = -1,  new weight for w[14] = 17
xn[15] = 1,  new weight for w[15] = -7
xn[16] = -1,  new weight for w[16] = 11
xn[17] = 1,  new weight for w[17] = -7
xn[18] = -1,  new weight for w[18] = 7
xn[19] = 1,  new weight for w[19] = 3
xn[0] = 1,  new weight for w[0] = -39
xn[1] = 1,  new weight for w[1] = -11
xn[2] = -1,  new weight for w[2] = 23
xn[3] = 1,  new weight for w[3] = -21
xn[4] = -1,  new weight for w[4] = 19
xn[5] = 1,  new weight for w[5] = -15
xn[6] = -1,  new weight for w[6] = 13
xn[7] = 1,  new weight for w[7] = -13
xn[8] = -1,  new weight for w[8] = 15
xn[9] = 1,  new weight for w[9] = -15
xn[10] = -1,  new weight for w[10] = 13
xn[11] = 1,  new weight for w[11] = -15
xn[12] = -1,  new weight for w[12] = 9
xn[13] = 1,  new weight for w[13] = -13
xn[14] = -1,  new weight for w[14] = 17
xn[15] = 1,  new weight for w[15] = -7
xn[16] = -1,  new weight for w[16] = 11
xn[17] = 1,  new weight for w[17] = -7
xn[18] = -1,  new weight for w[18] = 7
xn[19] = 1,  new weight for w[19] = 3
xn[0] = 1,  new weight for w[0] = -40
xn[1] = 1,  new weight for w[1] = -12
xn[2] = -1,  new weight for w[2] = 24
xn[3] = 1,  new weight for w[3] = -22
xn[4] = -1,  new weight for w[4] = 20
xn[5] = 1,  new weight for w[5] = -16
xn[6] = -1,  new weight for w[6] = 14
xn[7] = 1,  new weight for w[7] = -14
xn[8] = -1,  new weight for w[8] = 16
xn[9] = 1,  new weight for w[9] = -16
xn[10] = -1,  new weight for w[10] = 14
xn[11] = 1,  new weight for w[11] = -16
xn[12] = -1,  new weight for w[12] = 10
xn[13] = 1,  new weight for w[13] = -14
xn[14] = -1,  new weight for w[14] = 18
xn[15] = 1,  new weight for w[15] = -8
xn[16] = -1,  new weight for w[16] = 12
xn[17] = 1,  new weight for w[17] = -8
xn[18] = -1,  new weight for w[18] = 8
xn[19] = 1,  new weight for w[19] = 2
xn[0] = 1,  new weight for w[0] = -40
xn[1] = 1,  new weight for w[1] = -12
xn[2] = -1,  new weight for w[2] = 24
xn[3] = 1,  new weight for w[3] = -22
xn[4] = -1,  new weight for w[4] = 20
xn[5] = 1,  new weight for w[5] = -16
xn[6] = -1,  new weight for w[6] = 14
xn[7] = 1,  new weight for w[7] = -14
xn[8] = -1,  new weight for w[8] = 16
xn[9] = 1,  new weight for w[9] = -16
xn[10] = -1,  new weight for w[10] = 14
xn[11] = 1,  new weight for w[11] = -16
xn[12] = -1,  new weight for w[12] = 10
xn[13] = 1,  new weight for w[13] = -14
xn[14] = -1,  new weight for w[14] = 18
xn[15] = 1,  new weight for w[15] = -8
xn[16] = -1,  new weight for w[16] = 12
xn[17] = 1,  new weight for w[17] = -8
xn[18] = -1,  new weight for w[18] = 8
xn[19] = 1,  new weight for w[19] = 2
xn[0] = 1,  new weight for w[0] = -41
xn[1] = 1,  new weight for w[1] = -13
xn[2] = -1,  new weight for w[2] = 25
xn[3] = 1,  new weight for w[3] = -23
xn[4] = -1,  new weight for w[4] = 21
xn[5] = 1,  new weight for w[5] = -17
xn[6] = -1,  new weight for w[6] = 15
xn[7] = 1,  new weight for w[7] = -15
xn[8] = -1,  new weight for w[8] = 17
xn[9] = 1,  new weight for w[9] = -17
xn[10] = -1,  new weight for w[10] = 15
xn[11] = 1,  new weight for w[11] = -17
xn[12] = -1,  new weight for w[12] = 11
xn[13] = 1,  new weight for w[13] = -15
xn[14] = -1,  new weight for w[14] = 19
xn[15] = 1,  new weight for w[15] = -9
xn[16] = -1,  new weight for w[16] = 13
xn[17] = 1,  new weight for w[17] = -9
xn[18] = -1,  new weight for w[18] = 9
xn[19] = 1,  new weight for w[19] = 1
xn[0] = 1,  new weight for w[0] = -41
xn[1] = 1,  new weight for w[1] = -13
xn[2] = -1,  new weight for w[2] = 25
xn[3] = 1,  new weight for w[3] = -23
xn[4] = -1,  new weight for w[4] = 21
xn[5] = 1,  new weight for w[5] = -17
xn[6] = -1,  new weight for w[6] = 15
xn[7] = 1,  new weight for w[7] = -15
xn[8] = -1,  new weight for w[8] = 17
xn[9] = 1,  new weight for w[9] = -17
xn[10] = -1,  new weight for w[10] = 15
xn[11] = 1,  new weight for w[11] = -17
xn[12] = -1,  new weight for w[12] = 11
xn[13] = 1,  new weight for w[13] = -15
xn[14] = -1,  new weight for w[14] = 19
xn[15] = 1,  new weight for w[15] = -9
xn[16] = -1,  new weight for w[16] = 13
xn[17] = 1,  new weight for w[17] = -9
xn[18] = -1,  new weight for w[18] = 9
xn[19] = 1,  new weight for w[19] = 1
xn[0] = 1,  new weight for w[0] = -42
xn[1] = 1,  new weight for w[1] = -14
xn[2] = -1,  new weight for w[2] = 26
xn[3] = 1,  new weight for w[3] = -24
xn[4] = -1,  new weight for w[4] = 22
xn[5] = 1,  new weight for w[5] = -18
xn[6] = -1,  new weight for w[6] = 16
xn[7] = 1,  new weight for w[7] = -16
xn[8] = -1,  new weight for w[8] = 18
xn[9] = 1,  new weight for w[9] = -18
xn[10] = -1,  new weight for w[10] = 16
xn[11] = 1,  new weight for w[11] = -18
xn[12] = -1,  new weight for w[12] = 12
xn[13] = 1,  new weight for w[13] = -16
xn[14] = -1,  new weight for w[14] = 20
xn[15] = 1,  new weight for w[15] = -10
xn[16] = -1,  new weight for w[16] = 14
xn[17] = 1,  new weight for w[17] = -10
xn[18] = -1,  new weight for w[18] = 10
xn[19] = 1,  new weight for w[19] = 0
xn[0] = 1,  new weight for w[0] = -42
xn[1] = 1,  new weight for w[1] = -14
xn[2] = -1,  new weight for w[2] = 26
xn[3] = 1,  new weight for w[3] = -24
xn[4] = -1,  new weight for w[4] = 22
xn[5] = 1,  new weight for w[5] = -18
xn[6] = -1,  new weight for w[6] = 16
xn[7] = 1,  new weight for w[7] = -16
xn[8] = -1,  new weight for w[8] = 18
xn[9] = 1,  new weight for w[9] = -18
xn[10] = -1,  new weight for w[10] = 16
xn[11] = 1,  new weight for w[11] = -18
xn[12] = -1,  new weight for w[12] = 12
xn[13] = 1,  new weight for w[13] = -16
xn[14] = -1,  new weight for w[14] = 20
xn[15] = 1,  new weight for w[15] = -10
xn[16] = -1,  new weight for w[16] = 14
xn[17] = 1,  new weight for w[17] = -10
xn[18] = -1,  new weight for w[18] = 10
xn[19] = 1,  new weight for w[19] = 0
xn[0] = 1,  new weight for w[0] = -43
xn[1] = 1,  new weight for w[1] = -15
xn[2] = -1,  new weight for w[2] = 27
xn[3] = 1,  new weight for w[3] = -25
xn[4] = -1,  new weight for w[4] = 23
xn[5] = 1,  new weight for w[5] = -19
xn[6] = -1,  new weight for w[6] = 17
xn[7] = 1,  new weight for w[7] = -17
xn[8] = -1,  new weight for w[8] = 19
xn[9] = 1,  new weight for w[9] = -19
xn[10] = -1,  new weight for w[10] = 17
xn[11] = 1,  new weight for w[11] = -19
xn[12] = -1,  new weight for w[12] = 13
xn[13] = 1,  new weight for w[13] = -17
xn[14] = -1,  new weight for w[14] = 21
xn[15] = 1,  new weight for w[15] = -11
xn[16] = -1,  new weight for w[16] = 15
xn[17] = 1,  new weight for w[17] = -11
xn[18] = -1,  new weight for w[18] = 11
xn[19] = 1,  new weight for w[19] = -1
xn[0] = 1,  new weight for w[0] = -43
xn[1] = 1,  new weight for w[1] = -15
xn[2] = -1,  new weight for w[2] = 27
xn[3] = 1,  new weight for w[3] = -25
xn[4] = -1,  new weight for w[4] = 23
xn[5] = 1,  new weight for w[5] = -19
xn[6] = -1,  new weight for w[6] = 17
xn[7] = 1,  new weight for w[7] = -17
xn[8] = -1,  new weight for w[8] = 19
xn[9] = 1,  new weight for w[9] = -19
xn[10] = -1,  new weight for w[10] = 17
xn[11] = 1,  new weight for w[11] = -19
xn[12] = -1,  new weight for w[12] = 13
xn[13] = 1,  new weight for w[13] = -17
xn[14] = -1,  new weight for w[14] = 21
xn[15] = 1,  new weight for w[15] = -11
xn[16] = -1,  new weight for w[16] = 15
xn[17] = 1,  new weight for w[17] = -11
xn[18] = -1,  new weight for w[18] = 11
xn[19] = 1,  new weight for w[19] = -1
xn[0] = 1,  new weight for w[0] = -44
xn[1] = 1,  new weight for w[1] = -16
xn[2] = -1,  new weight for w[2] = 28
xn[3] = 1,  new weight for w[3] = -26
xn[4] = -1,  new weight for w[4] = 24
xn[5] = 1,  new weight for w[5] = -20
xn[6] = -1,  new weight for w[6] = 18
xn[7] = 1,  new weight for w[7] = -18
xn[8] = -1,  new weight for w[8] = 20
xn[9] = 1,  new weight for w[9] = -20
xn[10] = -1,  new weight for w[10] = 18
xn[11] = 1,  new weight for w[11] = -20
xn[12] = -1,  new weight for w[12] = 14
xn[13] = 1,  new weight for w[13] = -18
xn[14] = -1,  new weight for w[14] = 22
xn[15] = 1,  new weight for w[15] = -12
xn[16] = -1,  new weight for w[16] = 16
xn[17] = 1,  new weight for w[17] = -12
xn[18] = -1,  new weight for w[18] = 12
xn[19] = 1,  new weight for w[19] = -2
xn[0] = 1,  new weight for w[0] = -44
xn[1] = 1,  new weight for w[1] = -16
xn[2] = -1,  new weight for w[2] = 28
xn[3] = 1,  new weight for w[3] = -26
xn[4] = -1,  new weight for w[4] = 24
xn[5] = 1,  new weight for w[5] = -20
xn[6] = -1,  new weight for w[6] = 18
xn[7] = 1,  new weight for w[7] = -18
xn[8] = -1,  new weight for w[8] = 20
xn[9] = 1,  new weight for w[9] = -20
xn[10] = -1,  new weight for w[10] = 18
xn[11] = 1,  new weight for w[11] = -20
xn[12] = -1,  new weight for w[12] = 14
xn[13] = 1,  new weight for w[13] = -18
xn[14] = -1,  new weight for w[14] = 22
xn[15] = 1,  new weight for w[15] = -12
xn[16] = -1,  new weight for w[16] = 16
xn[17] = 1,  new weight for w[17] = -12
xn[18] = -1,  new weight for w[18] = 12
xn[19] = 1,  new weight for w[19] = -2
xn[0] = 1,  new weight for w[0] = -45
xn[1] = 1,  new weight for w[1] = -17
xn[2] = -1,  new weight for w[2] = 29
xn[3] = 1,  new weight for w[3] = -27
xn[4] = -1,  new weight for w[4] = 25
xn[5] = 1,  new weight for w[5] = -21
xn[6] = -1,  new weight for w[6] = 19
xn[7] = 1,  new weight for w[7] = -19
xn[8] = -1,  new weight for w[8] = 21
xn[9] = 1,  new weight for w[9] = -21
xn[10] = -1,  new weight for w[10] = 19
xn[11] = 1,  new weight for w[11] = -21
xn[12] = -1,  new weight for w[12] = 15
xn[13] = 1,  new weight for w[13] = -19
xn[14] = -1,  new weight for w[14] = 23
xn[15] = 1,  new weight for w[15] = -13
xn[16] = -1,  new weight for w[16] = 17
xn[17] = 1,  new weight for w[17] = -13
xn[18] = -1,  new weight for w[18] = 13
xn[19] = 1,  new weight for w[19] = -3
xn[0] = 1,  new weight for w[0] = -45
xn[1] = 1,  new weight for w[1] = -17
xn[2] = -1,  new weight for w[2] = 29
xn[3] = 1,  new weight for w[3] = -27
xn[4] = -1,  new weight for w[4] = 25
xn[5] = 1,  new weight for w[5] = -21
xn[6] = -1,  new weight for w[6] = 19
xn[7] = 1,  new weight for w[7] = -19
xn[8] = -1,  new weight for w[8] = 21
xn[9] = 1,  new weight for w[9] = -21
xn[10] = -1,  new weight for w[10] = 19
xn[11] = 1,  new weight for w[11] = -21
xn[12] = -1,  new weight for w[12] = 15
xn[13] = 1,  new weight for w[13] = -19
xn[14] = -1,  new weight for w[14] = 23
xn[15] = 1,  new weight for w[15] = -13
xn[16] = -1,  new weight for w[16] = 17
xn[17] = 1,  new weight for w[17] = -13
xn[18] = -1,  new weight for w[18] = 13
xn[19] = 1,  new weight for w[19] = -3
xn[0] = 1,  new weight for w[0] = -46
xn[1] = 1,  new weight for w[1] = -18
xn[2] = -1,  new weight for w[2] = 30
xn[3] = 1,  new weight for w[3] = -28
xn[4] = -1,  new weight for w[4] = 26
xn[5] = 1,  new weight for w[5] = -22
xn[6] = -1,  new weight for w[6] = 20
xn[7] = 1,  new weight for w[7] = -20
xn[8] = -1,  new weight for w[8] = 22
xn[9] = 1,  new weight for w[9] = -22
xn[10] = -1,  new weight for w[10] = 20
xn[11] = 1,  new weight for w[11] = -22
xn[12] = -1,  new weight for w[12] = 16
xn[13] = 1,  new weight for w[13] = -20
xn[14] = -1,  new weight for w[14] = 24
xn[15] = 1,  new weight for w[15] = -14
xn[16] = -1,  new weight for w[16] = 18
xn[17] = 1,  new weight for w[17] = -14
xn[18] = -1,  new weight for w[18] = 14
xn[19] = 1,  new weight for w[19] = -4
xn[0] = 1,  new weight for w[0] = -46
xn[1] = 1,  new weight for w[1] = -18
xn[2] = -1,  new weight for w[2] = 30
xn[3] = 1,  new weight for w[3] = -28
xn[4] = -1,  new weight for w[4] = 26
xn[5] = 1,  new weight for w[5] = -22
xn[6] = -1,  new weight for w[6] = 20
xn[7] = 1,  new weight for w[7] = -20
xn[8] = -1,  new weight for w[8] = 22
xn[9] = 1,  new weight for w[9] = -22
xn[10] = -1,  new weight for w[10] = 20
xn[11] = 1,  new weight for w[11] = -22
xn[12] = -1,  new weight for w[12] = 16
xn[13] = 1,  new weight for w[13] = -20
xn[14] = -1,  new weight for w[14] = 24
xn[15] = 1,  new weight for w[15] = -14
xn[16] = -1,  new weight for w[16] = 18
xn[17] = 1,  new weight for w[17] = -14
xn[18] = -1,  new weight for w[18] = 14
xn[19] = 1,  new weight for w[19] = -4
xn[0] = 1,  new weight for w[0] = -47
xn[1] = 1,  new weight for w[1] = -19
xn[2] = -1,  new weight for w[2] = 31
xn[3] = 1,  new weight for w[3] = -29
xn[4] = -1,  new weight for w[4] = 27
xn[5] = 1,  new weight for w[5] = -23
xn[6] = -1,  new weight for w[6] = 21
xn[7] = 1,  new weight for w[7] = -21
xn[8] = -1,  new weight for w[8] = 23
xn[9] = 1,  new weight for w[9] = -23
xn[10] = -1,  new weight for w[10] = 21
xn[11] = 1,  new weight for w[11] = -23
xn[12] = -1,  new weight for w[12] = 17
xn[13] = 1,  new weight for w[13] = -21
xn[14] = -1,  new weight for w[14] = 25
xn[15] = 1,  new weight for w[15] = -15
xn[16] = -1,  new weight for w[16] = 19
xn[17] = 1,  new weight for w[17] = -15
xn[18] = -1,  new weight for w[18] = 15
xn[19] = 1,  new weight for w[19] = -5
xn[0] = 1,  new weight for w[0] = -47
xn[1] = 1,  new weight for w[1] = -19
xn[2] = -1,  new weight for w[2] = 31
xn[3] = 1,  new weight for w[3] = -29
xn[4] = -1,  new weight for w[4] = 27
xn[5] = 1,  new weight for w[5] = -23
xn[6] = -1,  new weight for w[6] = 21
xn[7] = 1,  new weight for w[7] = -21
xn[8] = -1,  new weight for w[8] = 23
xn[9] = 1,  new weight for w[9] = -23
xn[10] = -1,  new weight for w[10] = 21
xn[11] = 1,  new weight for w[11] = -23
xn[12] = -1,  new weight for w[12] = 17
xn[13] = 1,  new weight for w[13] = -21
xn[14] = -1,  new weight for w[14] = 25
xn[15] = 1,  new weight for w[15] = -15
xn[16] = -1,  new weight for w[16] = 19
xn[17] = 1,  new weight for w[17] = -15
xn[18] = -1,  new weight for w[18] = 15
xn[19] = 1,  new weight for w[19] = -5
xn[0] = 1,  new weight for w[0] = -48
xn[1] = 1,  new weight for w[1] = -20
xn[2] = -1,  new weight for w[2] = 32
xn[3] = 1,  new weight for w[3] = -30
xn[4] = -1,  new weight for w[4] = 28
xn[5] = 1,  new weight for w[5] = -24
xn[6] = -1,  new weight for w[6] = 22
xn[7] = 1,  new weight for w[7] = -22
xn[8] = -1,  new weight for w[8] = 24
xn[9] = 1,  new weight for w[9] = -24
xn[10] = -1,  new weight for w[10] = 22
xn[11] = 1,  new weight for w[11] = -24
xn[12] = -1,  new weight for w[12] = 18
xn[13] = 1,  new weight for w[13] = -22
xn[14] = -1,  new weight for w[14] = 26
xn[15] = 1,  new weight for w[15] = -16
xn[16] = -1,  new weight for w[16] = 20
xn[17] = 1,  new weight for w[17] = -16
xn[18] = -1,  new weight for w[18] = 16
xn[19] = 1,  new weight for w[19] = -6
xn[0] = 1,  new weight for w[0] = -48
xn[1] = 1,  new weight for w[1] = -20
xn[2] = -1,  new weight for w[2] = 32
xn[3] = 1,  new weight for w[3] = -30
xn[4] = -1,  new weight for w[4] = 28
xn[5] = 1,  new weight for w[5] = -24
xn[6] = -1,  new weight for w[6] = 22
xn[7] = 1,  new weight for w[7] = -22
xn[8] = -1,  new weight for w[8] = 24
xn[9] = 1,  new weight for w[9] = -24
xn[10] = -1,  new weight for w[10] = 22
xn[11] = 1,  new weight for w[11] = -24
xn[12] = -1,  new weight for w[12] = 18
xn[13] = 1,  new weight for w[13] = -22
xn[14] = -1,  new weight for w[14] = 26
xn[15] = 1,  new weight for w[15] = -16
xn[16] = -1,  new weight for w[16] = 20
xn[17] = 1,  new weight for w[17] = -16
xn[18] = -1,  new weight for w[18] = 16
xn[19] = 1,  new weight for w[19] = -6
xn[0] = 1,  new weight for w[0] = -49
xn[1] = 1,  new weight for w[1] = -21
xn[2] = -1,  new weight for w[2] = 33
xn[3] = 1,  new weight for w[3] = -31
xn[4] = -1,  new weight for w[4] = 29
xn[5] = 1,  new weight for w[5] = -25
xn[6] = -1,  new weight for w[6] = 23
xn[7] = 1,  new weight for w[7] = -23
xn[8] = -1,  new weight for w[8] = 25
xn[9] = 1,  new weight for w[9] = -25
xn[10] = -1,  new weight for w[10] = 23
xn[11] = 1,  new weight for w[11] = -25
xn[12] = -1,  new weight for w[12] = 19
xn[13] = 1,  new weight for w[13] = -23
xn[14] = -1,  new weight for w[14] = 27
xn[15] = 1,  new weight for w[15] = -17
xn[16] = -1,  new weight for w[16] = 21
xn[17] = 1,  new weight for w[17] = -17
xn[18] = -1,  new weight for w[18] = 17
xn[19] = 1,  new weight for w[19] = -7
xn[0] = 1,  new weight for w[0] = -49
xn[1] = 1,  new weight for w[1] = -21
xn[2] = -1,  new weight for w[2] = 33
xn[3] = 1,  new weight for w[3] = -31
xn[4] = -1,  new weight for w[4] = 29
xn[5] = 1,  new weight for w[5] = -25
xn[6] = -1,  new weight for w[6] = 23
xn[7] = 1,  new weight for w[7] = -23
xn[8] = -1,  new weight for w[8] = 25
xn[9] = 1,  new weight for w[9] = -25
xn[10] = -1,  new weight for w[10] = 23
xn[11] = 1,  new weight for w[11] = -25
xn[12] = -1,  new weight for w[12] = 19
xn[13] = 1,  new weight for w[13] = -23
xn[14] = -1,  new weight for w[14] = 27
xn[15] = 1,  new weight for w[15] = -17
xn[16] = -1,  new weight for w[16] = 21
xn[17] = 1,  new weight for w[17] = -17
xn[18] = -1,  new weight for w[18] = 17
xn[19] = 1,  new weight for w[19] = -7
xn[0] = 1,  new weight for w[0] = -50
xn[1] = 1,  new weight for w[1] = -22
xn[2] = -1,  new weight for w[2] = 34
xn[3] = 1,  new weight for w[3] = -32
xn[4] = -1,  new weight for w[4] = 30
xn[5] = 1,  new weight for w[5] = -26
xn[6] = -1,  new weight for w[6] = 24
xn[7] = 1,  new weight for w[7] = -24
xn[8] = -1,  new weight for w[8] = 26
xn[9] = 1,  new weight for w[9] = -26
xn[10] = -1,  new weight for w[10] = 24
xn[11] = 1,  new weight for w[11] = -26
xn[12] = -1,  new weight for w[12] = 20
xn[13] = 1,  new weight for w[13] = -24
xn[14] = -1,  new weight for w[14] = 28
xn[15] = 1,  new weight for w[15] = -18
xn[16] = -1,  new weight for w[16] = 22
xn[17] = 1,  new weight for w[17] = -18
xn[18] = -1,  new weight for w[18] = 18
xn[19] = 1,  new weight for w[19] = -8
xn[0] = 1,  new weight for w[0] = -50
xn[1] = 1,  new weight for w[1] = -22
xn[2] = -1,  new weight for w[2] = 34
xn[3] = 1,  new weight for w[3] = -32
xn[4] = -1,  new weight for w[4] = 30
xn[5] = 1,  new weight for w[5] = -26
xn[6] = -1,  new weight for w[6] = 24
xn[7] = 1,  new weight for w[7] = -24
xn[8] = -1,  new weight for w[8] = 26
xn[9] = 1,  new weight for w[9] = -26
xn[10] = -1,  new weight for w[10] = 24
xn[11] = 1,  new weight for w[11] = -26
xn[12] = -1,  new weight for w[12] = 20
xn[13] = 1,  new weight for w[13] = -24
xn[14] = -1,  new weight for w[14] = 28
xn[15] = 1,  new weight for w[15] = -18
xn[16] = -1,  new weight for w[16] = 22
xn[17] = 1,  new weight for w[17] = -18
xn[18] = -1,  new weight for w[18] = 18
xn[19] = 1,  new weight for w[19] = -8
xn[0] = 1,  new weight for w[0] = -51
xn[1] = 1,  new weight for w[1] = -23
xn[2] = -1,  new weight for w[2] = 35
xn[3] = 1,  new weight for w[3] = -33
xn[4] = -1,  new weight for w[4] = 31
xn[5] = 1,  new weight for w[5] = -27
xn[6] = -1,  new weight for w[6] = 25
xn[7] = 1,  new weight for w[7] = -25
xn[8] = -1,  new weight for w[8] = 27
xn[9] = 1,  new weight for w[9] = -27
xn[10] = -1,  new weight for w[10] = 25
xn[11] = 1,  new weight for w[11] = -27
xn[12] = -1,  new weight for w[12] = 21
xn[13] = 1,  new weight for w[13] = -25
xn[14] = -1,  new weight for w[14] = 29
xn[15] = 1,  new weight for w[15] = -19
xn[16] = -1,  new weight for w[16] = 23
xn[17] = 1,  new weight for w[17] = -19
xn[18] = -1,  new weight for w[18] = 19
xn[19] = 1,  new weight for w[19] = -9
xn[0] = 1,  new weight for w[0] = -51
xn[1] = 1,  new weight for w[1] = -23
xn[2] = -1,  new weight for w[2] = 35
xn[3] = 1,  new weight for w[3] = -33
xn[4] = -1,  new weight for w[4] = 31
xn[5] = 1,  new weight for w[5] = -27
xn[6] = -1,  new weight for w[6] = 25
xn[7] = 1,  new weight for w[7] = -25
xn[8] = -1,  new weight for w[8] = 27
xn[9] = 1,  new weight for w[9] = -27
xn[10] = -1,  new weight for w[10] = 25
[...]
xn[15] = 1,  new weight for w[15] = -2533
xn[16] = -1,  new weight for w[16] = 2537
xn[17] = 1,  new weight for w[17] = -2533
xn[18] = -1,  new weight for w[18] = 2533
xn[19] = 1,  new weight for w[19] = -2523
xn[0] = 1,  new weight for w[0] = -2571
xn[1] = 1,  new weight for w[1] = -2543
xn[2] = -1,  new weight for w[2] = 2555
xn[3] = 1,  new weight for w[3] = -2553
xn[4] = -1,  new weight for w[4] = 2551
xn[5] = 1,  new weight for w[5] = -2547
xn[6] = -1,  new weight for w[6] = 2545
xn[7] = 1,  new weight for w[7] = -2545
xn[8] = -1,  new weight for w[8] = 2547
xn[9] = 1,  new weight for w[9] = -2547
xn[10] = -1,  new weight for w[10] = 2545
xn[11] = 1,  new weight for w[11] = -2547
xn[12] = -1,  new weight for w[12] = 2541
xn[13] = 1,  new weight for w[13] = -2545
xn[14] = -1,  new weight for w[14] = 2549
xn[15] = 1,  new weight for w[15] = -2539
xn[16] = -1,  new weight for w[16] = 2543
xn[17] = 1,  new weight for w[17] = -2539
xn[18] = -1,  new weight for w[18] = 2539
xn[19] = 1,  new weight for w[19] = -2529
xn[0] = 1,  new weight for w[0] = -2566
xn[1] = 1,  new weight for w[1] = -2538
xn[2] = -1,  new weight for w[2] = 2550
xn[3] = 1,  new weight for w[3] = -2548
xn[4] = -1,  new weight for w[4] = 2546
xn[5] = 1,  new weight for w[5] = -2542
xn[6] = -1,  new weight for w[6] = 2540
xn[7] = 1,  new weight for w[7] = -2540
xn[8] = -1,  new weight for w[8] = 2542
xn[9] = 1,  new weight for w[9] = -2542
xn[10] = -1,  new weight for w[10] = 2540
xn[11] = 1,  new weight for w[11] = -2542
xn[12] = -1,  new weight for w[12] = 2536
xn[13] = 1,  new weight for w[13] = -2540
xn[14] = -1,  new weight for w[14] = 2544
xn[15] = 1,  new weight for w[15] = -2534
xn[16] = -1,  new weight for w[16] = 2538
xn[17] = 1,  new weight for w[17] = -2534
xn[18] = -1,  new weight for w[18] = 2534
xn[19] = 1,  new weight for w[19] = -2524
xn[0] = 1,  new weight for w[0] = -2567
xn[1] = 1,  new weight for w[1] = -2539
xn[2] = -1,  new weight for w[2] = 2551
xn[3] = 1,  new weight for w[3] = -2549
xn[4] = -1,  new weight for w[4] = 2547
xn[5] = 1,  new weight for w[5] = -2543
xn[6] = -1,  new weight for w[6] = 2541
xn[7] = 1,  new weight for w[7] = -2541
xn[8] = -1,  new weight for w[8] = 2543
xn[9] = 1,  new weight for w[9] = -2543
xn[10] = -1,  new weight for w[10] = 2541
xn[11] = 1,  new weight for w[11] = -2543
xn[12] = -1,  new weight for w[12] = 2537
xn[13] = 1,  new weight for w[13] = -2541
xn[14] = -1,  new weight for w[14] = 2545
xn[15] = 1,  new weight for w[15] = -2535
xn[16] = -1,  new weight for w[16] = 2539
xn[17] = 1,  new weight for w[17] = -2535
xn[18] = -1,  new weight for w[18] = 2535
xn[19] = 1,  new weight for w[19] = -2525
xn[0] = 1,  new weight for w[0] = -2572
xn[1] = 1,  new weight for w[1] = -2544
xn[2] = -1,  new weight for w[2] = 2556
xn[3] = 1,  new weight for w[3] = -2554
xn[4] = -1,  new weight for w[4] = 2552
xn[5] = 1,  new weight for w[5] = -2548
xn[6] = -1,  new weight for w[6] = 2546
xn[7] = 1,  new weight for w[7] = -2546
xn[8] = -1,  new weight for w[8] = 2548
xn[9] = 1,  new weight for w[9] = -2548
xn[10] = -1,  new weight for w[10] = 2546
xn[11] = 1,  new weight for w[11] = -2548
xn[12] = -1,  new weight for w[12] = 2542
xn[13] = 1,  new weight for w[13] = -2546
xn[14] = -1,  new weight for w[14] = 2550
xn[15] = 1,  new weight for w[15] = -2540
xn[16] = -1,  new weight for w[16] = 2544
xn[17] = 1,  new weight for w[17] = -2540
xn[18] = -1,  new weight for w[18] = 2540
xn[19] = 1,  new weight for w[19] = -2530
xn[0] = 1,  new weight for w[0] = -2573
xn[1] = 1,  new weight for w[1] = -2545
xn[2] = -1,  new weight for w[2] = 2557
xn[3] = 1,  new weight for w[3] = -2555
xn[4] = -1,  new weight for w[4] = 2553
xn[5] = 1,  new weight for w[5] = -2549
xn[6] = -1,  new weight for w[6] = 2547
xn[7] = 1,  new weight for w[7] = -2547
xn[8] = -1,  new weight for w[8] = 2549
xn[9] = 1,  new weight for w[9] = -2549
xn[10] = -1,  new weight for w[10] = 2547
xn[11] = 1,  new weight for w[11] = -2549
xn[12] = -1,  new weight for w[12] = 2543
xn[13] = 1,  new weight for w[13] = -2547
xn[14] = -1,  new weight for w[14] = 2551
xn[15] = 1,  new weight for w[15] = -2541
xn[16] = -1,  new weight for w[16] = 2545
xn[17] = 1,  new weight for w[17] = -2541
xn[18] = -1,  new weight for w[18] = 2541
xn[19] = 1,  new weight for w[19] = -2531
xn[0] = 1,  new weight for w[0] = -2568
xn[1] = 1,  new weight for w[1] = -2540
xn[2] = -1,  new weight for w[2] = 2552
xn[3] = 1,  new weight for w[3] = -2550
xn[4] = -1,  new weight for w[4] = 2548
xn[5] = 1,  new weight for w[5] = -2544
xn[6] = -1,  new weight for w[6] = 2542
xn[7] = 1,  new weight for w[7] = -2542
xn[8] = -1,  new weight for w[8] = 2544
xn[9] = 1,  new weight for w[9] = -2544
xn[10] = -1,  new weight for w[10] = 2542
xn[11] = 1,  new weight for w[11] = -2544
xn[12] = -1,  new weight for w[12] = 2538
xn[13] = 1,  new weight for w[13] = -2542
xn[14] = -1,  new weight for w[14] = 2546
xn[15] = 1,  new weight for w[15] = -2536
xn[16] = -1,  new weight for w[16] = 2540
xn[17] = 1,  new weight for w[17] = -2536
xn[18] = -1,  new weight for w[18] = 2536
xn[19] = 1,  new weight for w[19] = -2526
xn[0] = 1,  new weight for w[0] = -2574
xn[1] = 1,  new weight for w[1] = -2546
xn[2] = -1,  new weight for w[2] = 2558
xn[3] = 1,  new weight for w[3] = -2556
xn[4] = -1,  new weight for w[4] = 2554
xn[5] = 1,  new weight for w[5] = -2550
xn[6] = -1,  new weight for w[6] = 2548
xn[7] = 1,  new weight for w[7] = -2548
xn[8] = -1,  new weight for w[8] = 2550
xn[9] = 1,  new weight for w[9] = -2550
xn[10] = -1,  new weight for w[10] = 2548
xn[11] = 1,  new weight for w[11] = -2550
xn[12] = -1,  new weight for w[12] = 2544
xn[13] = 1,  new weight for w[13] = -2548
xn[14] = -1,  new weight for w[14] = 2552
xn[15] = 1,  new weight for w[15] = -2542
xn[16] = -1,  new weight for w[16] = 2546
xn[17] = 1,  new weight for w[17] = -2542
xn[18] = -1,  new weight for w[18] = 2542
xn[19] = 1,  new weight for w[19] = -2532
xn[0] = 1,  new weight for w[0] = -2569
xn[1] = 1,  new weight for w[1] = -2541
xn[2] = -1,  new weight for w[2] = 2553
xn[3] = 1,  new weight for w[3] = -2551
xn[4] = -1,  new weight for w[4] = 2549
xn[5] = 1,  new weight for w[5] = -2545
xn[6] = -1,  new weight for w[6] = 2543
xn[7] = 1,  new weight for w[7] = -2543
xn[8] = -1,  new weight for w[8] = 2545
xn[9] = 1,  new weight for w[9] = -2545
xn[10] = -1,  new weight for w[10] = 2543
xn[11] = 1,  new weight for w[11] = -2545
xn[12] = -1,  new weight for w[12] = 2539
xn[13] = 1,  new weight for w[13] = -2543
xn[14] = -1,  new weight for w[14] = 2547
xn[15] = 1,  new weight for w[15] = -2537
xn[16] = -1,  new weight for w[16] = 2541
xn[17] = 1,  new weight for w[17] = -2537
xn[18] = -1,  new weight for w[18] = 2537
xn[19] = 1,  new weight for w[19] = -2527
xn[0] = 1,  new weight for w[0] = -2575
xn[1] = 1,  new weight for w[1] = -2547
xn[2] = -1,  new weight for w[2] = 2559
xn[3] = 1,  new weight for w[3] = -2557
xn[4] = -1,  new weight for w[4] = 2555
xn[5] = 1,  new weight for w[5] = -2551
xn[6] = -1,  new weight for w[6] = 2549
xn[7] = 1,  new weight for w[7] = -2549
xn[8] = -1,  new weight for w[8] = 2551
xn[9] = 1,  new weight for w[9] = -2551
xn[10] = -1,  new weight for w[10] = 2549
xn[11] = 1,  new weight for w[11] = -2551
xn[12] = -1,  new weight for w[12] = 2545
xn[13] = 1,  new weight for w[13] = -2549
xn[14] = -1,  new weight for w[14] = 2553
xn[15] = 1,  new weight for w[15] = -2543
xn[16] = -1,  new weight for w[16] = 2547
xn[17] = 1,  new weight for w[17] = -2543
xn[18] = -1,  new weight for w[18] = 2543
xn[19] = 1,  new weight for w[19] = -2533
xn[0] = 1,  new weight for w[0] = -2576
xn[1] = 1,  new weight for w[1] = -2548
xn[2] = -1,  new weight for w[2] = 2560
xn[3] = 1,  new weight for w[3] = -2558
xn[4] = -1,  new weight for w[4] = 2556
xn[5] = 1,  new weight for w[5] = -2552
xn[6] = -1,  new weight for w[6] = 2550
xn[7] = 1,  new weight for w[7] = -2550
xn[8] = -1,  new weight for w[8] = 2552
xn[9] = 1,  new weight for w[9] = -2552
xn[10] = -1,  new weight for w[10] = 2550
xn[11] = 1,  new weight for w[11] = -2552
xn[12] = -1,  new weight for w[12] = 2546
xn[13] = 1,  new weight for w[13] = -2550
xn[14] = -1,  new weight for w[14] = 2554
xn[15] = 1,  new weight for w[15] = -2544
xn[16] = -1,  new weight for w[16] = 2548
xn[17] = 1,  new weight for w[17] = -2544
xn[18] = -1,  new weight for w[18] = 2544
xn[19] = 1,  new weight for w[19] = -2534
xn[0] = 1,  new weight for w[0] = -2577
xn[1] = 1,  new weight for w[1] = -2549
xn[2] = -1,  new weight for w[2] = 2561
xn[3] = 1,  new weight for w[3] = -2559
xn[4] = -1,  new weight for w[4] = 2557
xn[5] = 1,  new weight for w[5] = -2553
xn[6] = -1,  new weight for w[6] = 2551
xn[7] = 1,  new weight for w[7] = -2551
xn[8] = -1,  new weight for w[8] = 2553
xn[9] = 1,  new weight for w[9] = -2553
xn[10] = -1,  new weight for w[10] = 2551
xn[11] = 1,  new weight for w[11] = -2553
xn[12] = -1,  new weight for w[12] = 2547
xn[13] = 1,  new weight for w[13] = -2551
xn[14] = -1,  new weight for w[14] = 2555
xn[15] = 1,  new weight for w[15] = -2545
xn[16] = -1,  new weight for w[16] = 2549
xn[17] = 1,  new weight for w[17] = -2545
xn[18] = -1,  new weight for w[18] = 2545
xn[19] = 1,  new weight for w[19] = -2535
xn[0] = 1,  new weight for w[0] = -2570
xn[1] = 1,  new weight for w[1] = -2542
xn[2] = -1,  new weight for w[2] = 2554
xn[3] = 1,  new weight for w[3] = -2552
xn[4] = -1,  new weight for w[4] = 2550
xn[5] = 1,  new weight for w[5] = -2546
xn[6] = -1,  new weight for w[6] = 2544
xn[7] = 1,  new weight for w[7] = -2544
xn[8] = -1,  new weight for w[8] = 2546
xn[9] = 1,  new weight for w[9] = -2546
xn[10] = -1,  new weight for w[10] = 2544
xn[11] = 1,  new weight for w[11] = -2546
xn[12] = -1,  new weight for w[12] = 2540
xn[13] = 1,  new weight for w[13] = -2544
xn[14] = -1,  new weight for w[14] = 2548
xn[15] = 1,  new weight for w[15] = -2538
xn[16] = -1,  new weight for w[16] = 2542
xn[17] = 1,  new weight for w[17] = -2538
xn[18] = -1,  new weight for w[18] = 2538
xn[19] = 1,  new weight for w[19] = -2528
xn[0] = 1,  new weight for w[0] = -2571
xn[1] = 1,  new weight for w[1] = -2543
xn[2] = -1,  new weight for w[2] = 2555
xn[3] = 1,  new weight for w[3] = -2553
xn[4] = -1,  new weight for w[4] = 2551
xn[5] = 1,  new weight for w[5] = -2547
xn[6] = -1,  new weight for w[6] = 2545
xn[7] = 1,  new weight for w[7] = -2545
xn[8] = -1,  new weight for w[8] = 2547
xn[9] = 1,  new weight for w[9] = -2547
xn[10] = -1,  new weight for w[10] = 2545
xn[11] = 1,  new weight for w[11] = -2547
xn[12] = -1,  new weight for w[12] = 2541
xn[13] = 1,  new weight for w[13] = -2545
xn[14] = -1,  new weight for w[14] = 2549
xn[15] = 1,  new weight for w[15] = -2539
xn[16] = -1,  new weight for w[16] = 2543
xn[17] = 1,  new weight for w[17] = -2539
xn[18] = -1,  new weight for w[18] = 2539
xn[19] = 1,  new weight for w[19] = -2529
xn[0] = 1,  new weight for w[0] = -2578
xn[1] = 1,  new weight for w[1] = -2550
xn[2] = -1,  new weight for w[2] = 2562
xn[3] = 1,  new weight for w[3] = -2560
xn[4] = -1,  new weight for w[4] = 2558
xn[5] = 1,  new weight for w[5] = -2554
xn[6] = -1,  new weight for w[6] = 2552
xn[7] = 1,  new weight for w[7] = -2552
xn[8] = -1,  new weight for w[8] = 2554
xn[9] = 1,  new weight for w[9] = -2554
xn[10] = -1,  new weight for w[10] = 2552
xn[11] = 1,  new weight for w[11] = -2554
xn[12] = -1,  new weight for w[12] = 2548
xn[13] = 1,  new weight for w[13] = -2552
xn[14] = -1,  new weight for w[14] = 2556
xn[15] = 1,  new weight for w[15] = -2546
xn[16] = -1,  new weight for w[16] = 2550
xn[17] = 1,  new weight for w[17] = -2546
xn[18] = -1,  new weight for w[18] = 2546
xn[19] = 1,  new weight for w[19] = -2536
xn[0] = 1,  new weight for w[0] = -2579
xn[1] = 1,  new weight for w[1] = -2551
xn[2] = -1,  new weight for w[2] = 2563
xn[3] = 1,  new weight for w[3] = -2561
xn[4] = -1,  new weight for w[4] = 2559
xn[5] = 1,  new weight for w[5] = -2555
xn[6] = -1,  new weight for w[6] = 2553
xn[7] = 1,  new weight for w[7] = -2553
xn[8] = -1,  new weight for w[8] = 2555
xn[9] = 1,  new weight for w[9] = -2555
xn[10] = -1,  new weight for w[10] = 2553
xn[11] = 1,  new weight for w[11] = -2555
xn[12] = -1,  new weight for w[12] = 2549
xn[13] = 1,  new weight for w[13] = -2553
xn[14] = -1,  new weight for w[14] = 2557
xn[15] = 1,  new weight for w[15] = -2547
xn[16] = -1,  new weight for w[16] = 2551
xn[17] = 1,  new weight for w[17] = -2547
xn[18] = -1,  new weight for w[18] = 2547
xn[19] = 1,  new weight for w[19] = -2537
xn[0] = 1,  new weight for w[0] = -2572
xn[1] = 1,  new weight for w[1] = -2544
xn[2] = -1,  new weight for w[2] = 2556
xn[3] = 1,  new weight for w[3] = -2554
xn[4] = -1,  new weight for w[4] = 2552
xn[5] = 1,  new weight for w[5] = -2548
xn[6] = -1,  new weight for w[6] = 2546
xn[7] = 1,  new weight for w[7] = -2546
xn[8] = -1,  new weight for w[8] = 2548
xn[9] = 1,  new weight for w[9] = -2548
xn[10] = -1,  new weight for w[10] = 2546
xn[11] = 1,  new weight for w[11] = -2548
xn[12] = -1,  new weight for w[12] = 2542
xn[13] = 1,  new weight for w[13] = -2546
xn[14] = -1,  new weight for w[14] = 2550
xn[15] = 1,  new weight for w[15] = -2540
xn[16] = -1,  new weight for w[16] = 2544
xn[17] = 1,  new weight for w[17] = -2540
xn[18] = -1,  new weight for w[18] = 2540
xn[19] = 1,  new weight for w[19] = -2530
xn[0] = 1,  new weight for w[0] = -2580
xn[1] = 1,  new weight for w[1] = -2552
xn[2] = -1,  new weight for w[2] = 2564
xn[3] = 1,  new weight for w[3] = -2562
xn[4] = -1,  new weight for w[4] = 2560
xn[5] = 1,  new weight for w[5] = -2556
xn[6] = -1,  new weight for w[6] = 2554
xn[7] = 1,  new weight for w[7] = -2554
xn[8] = -1,  new weight for w[8] = 2556
xn[9] = 1,  new weight for w[9] = -2556
xn[10] = -1,  new weight for w[10] = 2554
xn[11] = 1,  new weight for w[11] = -2556
xn[12] = -1,  new weight for w[12] = 2550
xn[13] = 1,  new weight for w[13] = -2554
xn[14] = -1,  new weight for w[14] = 2558
xn[15] = 1,  new weight for w[15] = -2548
xn[16] = -1,  new weight for w[16] = 2552
xn[17] = 1,  new weight for w[17] = -2548
xn[18] = -1,  new weight for w[18] = 2548
xn[19] = 1,  new weight for w[19] = -2538
xn[0] = 1,  new weight for w[0] = -2573
xn[1] = 1,  new weight for w[1] = -2545
xn[2] = -1,  new weight for w[2] = 2557
xn[3] = 1,  new weight for w[3] = -2555
xn[4] = -1,  new weight for w[4] = 2553
xn[5] = 1,  new weight for w[5] = -2549
xn[6] = -1,  new weight for w[6] = 2547
xn[7] = 1,  new weight for w[7] = -2547
xn[8] = -1,  new weight for w[8] = 2549
xn[9] = 1,  new weight for w[9] = -2549
xn[10] = -1,  new weight for w[10] = 2547
xn[11] = 1,  new weight for w[11] = -2549
xn[12] = -1,  new weight for w[12] = 2543
xn[13] = 1,  new weight for w[13] = -2547
xn[14] = -1,  new weight for w[14] = 2551
xn[15] = 1,  new weight for w[15] = -2541
xn[16] = -1,  new weight for w[16] = 2545
xn[17] = 1,  new weight for w[17] = -2541
xn[18] = -1,  new weight for w[18] = 2541
xn[19] = 1,  new weight for w[19] = -2531
xn[0] = 1,  new weight for w[0] = -2581
xn[1] = 1,  new weight for w[1] = -2553
xn[2] = -1,  new weight for w[2] = 2565
xn[3] = 1,  new weight for w[3] = -2563
xn[4] = -1,  new weight for w[4] = 2561
xn[5] = 1,  new weight for w[5] = -2557
xn[6] = -1,  new weight for w[6] = 2555
xn[7] = 1,  new weight for w[7] = -2555
xn[8] = -1,  new weight for w[8] = 2557
xn[9] = 1,  new weight for w[9] = -2557
xn[10] = -1,  new weight for w[10] = 2555
xn[11] = 1,  new weight for w[11] = -2557
xn[12] = -1,  new weight for w[12] = 2551
xn[13] = 1,  new weight for w[13] = -2555
xn[14] = -1,  new weight for w[14] = 2559
xn[15] = 1,  new weight for w[15] = -2549
xn[16] = -1,  new weight for w[16] = 2553
xn[17] = 1,  new weight for w[17] = -2549
xn[18] = -1,  new weight for w[18] = 2549
xn[19] = 1,  new weight for w[19] = -2539
xn[0] = 1,  new weight for w[0] = -2574
xn[1] = 1,  new weight for w[1] = -2546
xn[2] = -1,  new weight for w[2] = 2558
xn[3] = 1,  new weight for w[3] = -2556
xn[4] = -1,  new weight for w[4] = 2554
xn[5] = 1,  new weight for w[5] = -2550
xn[6] = -1,  new weight for w[6] = 2548
xn[7] = 1,  new weight for w[7] = -2548
xn[8] = -1,  new weight for w[8] = 2550
xn[9] = 1,  new weight for w[9] = -2550
xn[10] = -1,  new weight for w[10] = 2548
xn[11] = 1,  new weight for w[11] = -2550
xn[12] = -1,  new weight for w[12] = 2544
xn[13] = 1,  new weight for w[13] = -2548
xn[14] = -1,  new weight for w[14] = 2552
xn[15] = 1,  new weight for w[15] = -2542
xn[16] = -1,  new weight for w[16] = 2546
xn[17] = 1,  new weight for w[17] = -2542
xn[18] = -1,  new weight for w[18] = 2542
xn[19] = 1,  new weight for w[19] = -2532
xn[0] = 1,  new weight for w[0] = -2582
xn[1] = 1,  new weight for w[1] = -2554
xn[2] = -1,  new weight for w[2] = 2566
xn[3] = 1,  new weight for w[3] = -2564
xn[4] = -1,  new weight for w[4] = 2562
xn[5] = 1,  new weight for w[5] = -2558
xn[6] = -1,  new weight for w[6] = 2556
xn[7] = 1,  new weight for w[7] = -2556
xn[8] = -1,  new weight for w[8] = 2558
xn[9] = 1,  new weight for w[9] = -2558
xn[10] = -1,  new weight for w[10] = 2556
xn[11] = 1,  new weight for w[11] = -2558
xn[12] = -1,  new weight for w[12] = 2552
xn[13] = 1,  new weight for w[13] = -2556
xn[14] = -1,  new weight for w[14] = 2560
xn[15] = 1,  new weight for w[15] = -2550
xn[16] = -1,  new weight for w[16] = 2554
xn[17] = 1,  new weight for w[17] = -2550
xn[18] = -1,  new weight for w[18] = 2550
xn[19] = 1,  new weight for w[19] = -2540
xn[0] = 1,  new weight for w[0] = -2575
xn[1] = 1,  new weight for w[1] = -2547
xn[2] = -1,  new weight for w[2] = 2559
xn[3] = 1,  new weight for w[3] = -2557
xn[4] = -1,  new weight for w[4] = 2555
xn[5] = 1,  new weight for w[5] = -2551
xn[6] = -1,  new weight for w[6] = 2549
xn[7] = 1,  new weight for w[7] = -2549
xn[8] = -1,  new weight for w[8] = 2551
xn[9] = 1,  new weight for w[9] = -2551
xn[10] = -1,  new weight for w[10] = 2549
xn[11] = 1,  new weight for w[11] = -2551
xn[12] = -1,  new weight for w[12] = 2545
xn[13] = 1,  new weight for w[13] = -2549
xn[14] = -1,  new weight for w[14] = 2553
xn[15] = 1,  new weight for w[15] = -2543
xn[16] = -1,  new weight for w[16] = 2547
xn[17] = 1,  new weight for w[17] = -2543
xn[18] = -1,  new weight for w[18] = 2543
xn[19] = 1,  new weight for w[19] = -2533
xn[0] = 1,  new weight for w[0] = -2583
xn[1] = 1,  new weight for w[1] = -2555
xn[2] = -1,  new weight for w[2] = 2567
xn[3] = 1,  new weight for w[3] = -2565
xn[4] = -1,  new weight for w[4] = 2563
xn[5] = 1,  new weight for w[5] = -2559
xn[6] = -1,  new weight for w[6] = 2557
xn[7] = 1,  new weight for w[7] = -2557
xn[8] = -1,  new weight for w[8] = 2559
xn[9] = 1,  new weight for w[9] = -2559
xn[10] = -1,  new weight for w[10] = 2557
xn[11] = 1,  new weight for w[11] = -2559
xn[12] = -1,  new weight for w[12] = 2553
xn[13] = 1,  new weight for w[13] = -2557
xn[14] = -1,  new weight for w[14] = 2561
xn[15] = 1,  new weight for w[15] = -2551
xn[16] = -1,  new weight for w[16] = 2555
xn[17] = 1,  new weight for w[17] = -2551
xn[18] = -1,  new weight for w[18] = 2551
xn[19] = 1,  new weight for w[19] = -2541
xn[0] = 1,  new weight for w[0] = -2584
xn[1] = 1,  new weight for w[1] = -2556
xn[2] = -1,  new weight for w[2] = 2568
xn[3] = 1,  new weight for w[3] = -2566
xn[4] = -1,  new weight for w[4] = 2564
xn[5] = 1,  new weight for w[5] = -2560
xn[6] = -1,  new weight for w[6] = 2558
xn[7] = 1,  new weight for w[7] = -2558
xn[8] = -1,  new weight for w[8] = 2560
xn[9] = 1,  new weight for w[9] = -2560
xn[10] = -1,  new weight for w[10] = 2558
xn[11] = 1,  new weight for w[11] = -2560
xn[12] = -1,  new weight for w[12] = 2554
xn[13] = 1,  new weight for w[13] = -2558
xn[14] = -1,  new weight for w[14] = 2562
xn[15] = 1,  new weight for w[15] = -2552
xn[16] = -1,  new weight for w[16] = 2556
xn[17] = 1,  new weight for w[17] = -2552
xn[18] = -1,  new weight for w[18] = 2552
xn[19] = 1,  new weight for w[19] = -2542
Exiting @ tick 8837150000 because a thread reached the max instruction count
