Running SPEC test: exchange2

/home/victorfu/cpu2017/benchspec/CPU/548.exchange2_r
/home/victorfu/finalproject/gem5/build/X86/gem6.opt --outdir="/home/victorfu/output/bench_spec/fastforward-p3/exchange2" /home/victorfu/finalproject/gem5/configs/example/se.py --cmd=exchange2_r_base.victor_jun10-m64 --standard-switch=0 --warmup-insts=87000000 --caches  --l2cache --l1i_size=16kB  --l1d_size=64kB --l2_size=256kB --cpu-type=DerivO3CPU  --mem-type=DDR3_1600_8x8  --cpu-clock=1GHz --maxinsts=100000000 --options="6" --l2-hwp-type=TaggedPrefetcher --mlu_pf_type=perceptron

gem5 Simulator System.  http://gem5.org
gem5 is copyrighted software; use the --copyright option for details.

gem5 compiled Jun 14 2019 14:23:51
gem5 started Jun 14 2019 15:51:57
gem5 executing on tetracosa.cs.ucla.edu, pid 347214
command line: /home/victorfu/finalproject/gem5/build/X86/gem6.opt --outdir=/home/victorfu/output/bench_spec/fastforward-p3/exchange2 /home/victorfu/finalproject/gem5/configs/example/se.py --cmd=exchange2_r_base.victor_jun10-m64 --standard-switch=0 --warmup-insts=87000000 --caches --l2cache --l1i_size=16kB --l1d_size=64kB --l2_size=256kB --cpu-type=DerivO3CPU --mem-type=DDR3_1600_8x8 --cpu-clock=1GHz --maxinsts=100000000 --options=6 --l2-hwp-type=TaggedPrefetcher --mlu_pf_type=perceptron

info: Standard input is not a terminal, disabling listeners.
Warning: l2-hwp-type is set ( TaggedPrefetcher ), but the current l2 has a default Hardware Prefetcher of type <class 'm5.params.NullSimObject'> , using the specified by the flag option.
MLU-Prefetch Perceptron Enabled.
Global frequency set at 1000000000000 ticks per second
warn: DRAM device capacity (8192 Mbytes) does not match the address range assigned (512 Mbytes)
warn: Sockets disabled, not accepting gdb connections
**** REAL SIMULATION ****
info: Entering event queue @ 0.  Starting simulation...
accept
accept
accept
accept
accept
accept
accept
accept
accept
accept
accept
accept
accept
accept
accept
accept
accept
accept
accept
accept
accept
accept
accept
accept
accept
accept
accept
accept
accept
accept
accept
accept
accept
accept
accept
accept
accept
accept
accept
accept
accept
accept
accept
accept
accept
accept
accept
accept
accept
accept
accept
accept
accept
accept
accept
accept
accept
accept
accept
accept
accept
accept
accept
accept
accept
accept
accept
accept
accept
accept
accept
accept
accept
accept
accept
accept
accept
accept
accept
accept
accept
accept
accept
accept
accept
accept
accept
accept
accept
accept
accept
accept
accept
accept
accept
accept
accept
accept
accept
accept
accept
accept
accept
accept
accept
accept
accept
accept
accept
accept
accept
accept
accept
accept
accept
accept
accept
accept
accept
accept
accept
accept
info: Increasing stack size by one page.
accept
accept
accept
accept
accept
accept
accept
accept
accept
accept
accept
accept
accept
accept
accept
accept
accept
accept
accept
accept
accept
accept
accept
accept
accept
accept
accept
accept
accept
accept
accept
accept
accept
accept
accept
accept
accept
accept
accept
accept
accept
accept
accept
accept
accept
accept
accept
accept
accept
accept
accept
accept
accept
accept
accept
accept
accept
accept
accept
accept
accept
accept
accept
accept
accept
accept
accept
accept
accept
accept
accept
accept
accept
accept
accept
accept
accept
accept
accept
accept
accept
accept
accept
accept
accept
accept
accept
accept
accept
accept
accept
accept
accept
accept
accept
accept
accept
accept
accept
accept
accept
accept
accept
accept
accept
accept
accept
accept
accept
accept
accept
accept
accept
accept
accept
accept
accept
accept
accept
accept
accept
accept
accept
accept
accept
accept
accept
accept
accept
accept
accept
accept
accept
accept
accept
accept
accept
accept
accept
accept
accept
accept
accept
accept
accept
accept
accept
accept
weight of 0 is -0.493135
weight of 1 is -0.003506
weight of 2 is -0.355556
weight of 3 is -1.000000
not used!
deny
deny
deny
deny
deny
deny
deny
deny
weight of 0 is -0.000494
weight of 1 is -0.002773
weight of 2 is -0.355556
weight of 3 is 0.000000
used!
weight of 0 is 0.492147
weight of 1 is -0.002041
weight of 2 is -0.355556
weight of 3 is 1.000000
used!
accept
accept
accept
accept
accept
accept
weight of 0 is 0.984788
weight of 1 is -0.002022
weight of 2 is -0.355556
weight of 3 is 2.000000
used!
weight of 0 is 1.477430
weight of 1 is -0.002003
weight of 2 is -0.355556
weight of 3 is 3.000000
used!
accept
accept
weight of 0 is 0.984286
weight of 1 is -0.002118
weight of 2 is -0.711111
weight of 3 is 2.000000
not used!
weight of 0 is 0.491141
weight of 1 is -0.002146
weight of 2 is -1.777778
weight of 3 is 1.000000
not used!
accept
accept
accept
accept
weight of 0 is -0.002004
weight of 1 is -0.043168
weight of 2 is -2.488889
weight of 3 is 0.000000
not used!
accept
accept
weight of 0 is -0.495149
weight of 1 is -0.043197
weight of 2 is -2.488889
weight of 3 is -1.000000
not used!
weight of 0 is -0.988283
weight of 1 is -0.044098
weight of 2 is -2.488889
weight of 3 is -2.000000
not used!
deny
deny
deny
deny
weight of 0 is -1.480925
weight of 1 is -0.084134
weight of 2 is -2.488889
weight of 3 is -3.000000
not used!
deny
deny
deny
deny
deny
deny
deny
deny
weight of 0 is -1.973550
weight of 1 is -0.085449
weight of 2 is -2.488889
weight of 3 is -4.000000
not used!
deny
deny
weight of 0 is -1.480909
weight of 1 is -0.085374
weight of 2 is -2.488889
weight of 3 is -3.000000
used!
weight of 0 is -0.988267
weight of 1 is -0.085299
weight of 2 is -2.488889
weight of 3 is -2.000000
used!
weight of 0 is -1.480892
weight of 1 is -0.085304
weight of 2 is -3.555556
weight of 3 is -3.000000
not used!
deny
deny
weight of 0 is -0.988251
weight of 1 is -0.066721
weight of 2 is -3.555556
weight of 3 is -2.000000
used!
weight of 0 is -0.495610
weight of 1 is -0.048138
weight of 2 is -3.555556
weight of 3 is -1.000000
used!
deny
deny
weight of 0 is -0.988235
weight of 1 is -0.048185
weight of 2 is -3.733333
weight of 3 is -2.000000
not used!
deny
deny
weight of 0 is -1.481367
weight of 1 is -0.089373
weight of 2 is -4.444444
weight of 3 is -3.000000
not used!
deny
deny
deny
deny
weight of 0 is -1.974397
weight of 1 is -0.097612
weight of 2 is -4.444444
weight of 3 is -4.000000
not used!
weight of 0 is -2.467019
weight of 1 is -0.130789
weight of 2 is -4.533333
weight of 3 is -5.000000
not used!
deny
deny
weight of 0 is -1.974378
weight of 1 is -0.125247
weight of 2 is -4.533333
weight of 3 is -4.000000
used!
weight of 0 is -1.481736
weight of 1 is -0.119704
weight of 2 is -4.533333
weight of 3 is -3.000000
used!
deny
deny
deny
deny
deny
deny
weight of 0 is -0.988866
weight of 1 is -0.119637
weight of 2 is -3.911111
weight of 3 is -2.000000
used!
weight of 0 is -0.495996
weight of 1 is -0.119570
weight of 2 is -3.288889
weight of 3 is -1.000000
used!
weight of 0 is -0.989141
weight of 1 is -0.160609
weight of 2 is -3.822222
weight of 3 is -2.000000
not used!
deny
deny
weight of 0 is -0.496500
weight of 1 is -0.152981
weight of 2 is -3.822222
weight of 3 is -1.000000
used!
weight of 0 is -0.003858
weight of 1 is -0.145354
weight of 2 is -3.822222
weight of 3 is 0.000000
used!
weight of 0 is -0.496479
weight of 1 is -0.188138
weight of 2 is -3.911111
weight of 3 is -1.000000
not used!
deny
deny
weight of 0 is -0.003838
weight of 1 is -0.188119
weight of 2 is -3.911111
weight of 3 is 0.000000
used!
weight of 0 is 0.488803
weight of 1 is -0.188101
weight of 2 is -3.911111
weight of 3 is 1.000000
used!
weight of 0 is -0.003818
weight of 1 is -0.188129
weight of 2 is -4.711111
weight of 3 is 0.000000
not used!
accept
accept
weight of 0 is 0.488824
weight of 1 is -0.157567
weight of 2 is -4.711111
weight of 3 is 1.000000
used!
weight of 0 is 0.981465
weight of 1 is -0.127004
weight of 2 is -4.711111
weight of 3 is 2.000000
used!
accept
accept
weight of 0 is 0.488843
weight of 1 is -0.127124
weight of 2 is -6.044444
weight of 3 is 1.000000
not used!
weight of 0 is -0.003779
weight of 1 is -0.127125
weight of 2 is -6.044444
weight of 3 is 0.000000
not used!
weight of 0 is -0.496420
weight of 1 is -0.128760
weight of 2 is -6.044444
weight of 3 is -1.000000
not used!
deny
deny
deny
deny
deny
deny
deny
deny
weight of 0 is -0.003779
weight of 1 is -0.098350
weight of 2 is -6.044444
weight of 3 is 0.000000
used!
weight of 0 is 0.488863
weight of 1 is -0.067941
weight of 2 is -6.044444
weight of 3 is 1.000000
used!
weight of 0 is -0.003779
weight of 1 is -0.080359
weight of 2 is -6.044444
weight of 3 is 0.000000
not used!
accept
accept
weight of 0 is -0.496954
weight of 1 is -0.112694
weight of 2 is -6.222222
weight of 3 is -1.000000
not used!
weight of 0 is -0.989436
weight of 1 is -0.158016
weight of 2 is -7.288889
weight of 3 is -2.000000
not used!
weight of 0 is -1.482580
weight of 1 is -0.200863
weight of 2 is -7.822222
weight of 3 is -3.000000
not used!
weight of 0 is -1.975722
weight of 1 is -0.215003
weight of 2 is -8.711111
weight of 3 is -4.000000
not used!
deny
deny
weight of 0 is -2.468570
weight of 1 is -0.217732
weight of 2 is -9.955556
weight of 3 is -5.000000
not used!
deny
deny
deny
deny
deny
deny
weight of 0 is -1.975929
weight of 1 is -0.203359
weight of 2 is -9.955556
weight of 3 is -4.000000
used!
weight of 0 is -1.483288
weight of 1 is -0.188987
weight of 2 is -9.955556
weight of 3 is -3.000000
used!
deny
deny
weight of 0 is -1.976135
weight of 1 is -0.205781
weight of 2 is -11.200000
weight of 3 is -4.000000
not used!
deny
deny
deny
deny
weight of 0 is -2.468846
weight of 1 is -0.216936
weight of 2 is -11.377778
weight of 3 is -5.000000
not used!
weight of 0 is -2.961556
weight of 1 is -0.216956
weight of 2 is -11.466667
weight of 3 is -6.000000
not used!
deny
deny
weight of 0 is -2.468914
weight of 1 is -0.216937
weight of 2 is -11.466667
weight of 3 is -5.000000
used!
weight of 0 is -1.976273
weight of 1 is -0.216918
weight of 2 is -11.466667
weight of 3 is -4.000000
used!
deny
deny
weight of 0 is -1.483632
weight of 1 is -0.216899
weight of 2 is -11.466667
weight of 3 is -3.000000
used!
weight of 0 is -0.990990
weight of 1 is -0.216880
weight of 2 is -11.466667
weight of 3 is -2.000000
used!
weight of 0 is -1.483700
weight of 1 is -0.225921
weight of 2 is -12.088889
weight of 3 is -3.000000
not used!
deny
deny
weight of 0 is -1.976341
weight of 1 is -0.242698
weight of 2 is -12.088889
weight of 3 is -4.000000
not used!
deny
deny
deny
deny
weight of 0 is -1.483700
weight of 1 is -0.221712
weight of 2 is -12.088889
weight of 3 is -3.000000
used!
weight of 0 is -0.991059
weight of 1 is -0.200727
weight of 2 is -12.088889
weight of 3 is -2.000000
used!
weight of 0 is -1.483700
weight of 1 is -0.200764
weight of 2 is -12.088889
weight of 3 is -3.000000
not used!
deny
deny
weight of 0 is -0.991059
weight of 1 is -0.192761
weight of 2 is -12.088889
weight of 3 is -2.000000
used!
weight of 0 is -0.498417
weight of 1 is -0.184758
weight of 2 is -12.088889
weight of 3 is -1.000000
used!
deny
deny
weight of 0 is -0.991266
weight of 1 is -0.201556
weight of 2 is -12.266667
weight of 3 is -2.000000
not used!
deny
deny
weight of 0 is -1.484076
weight of 1 is -0.203876
weight of 2 is -13.155556
weight of 3 is -3.000000
not used!
deny
deny
deny
deny
weight of 0 is -0.991435
weight of 1 is -0.203857
weight of 2 is -13.155556
weight of 3 is -2.000000
used!
weight of 0 is -0.498794
weight of 1 is -0.203838
weight of 2 is -13.155556
weight of 3 is -1.000000
used!
deny
deny
weight of 0 is -0.991645
weight of 1 is -0.220970
weight of 2 is -14.400000
weight of 3 is -2.000000
not used!
deny
deny
weight of 0 is -0.499004
weight of 1 is -0.199966
weight of 2 is -14.400000
weight of 3 is -1.000000
used!
weight of 0 is -0.006363
weight of 1 is -0.178962
weight of 2 is -14.400000
weight of 3 is 0.000000
used!
weight of 0 is -0.499004
weight of 1 is -0.196037
weight of 2 is -14.400000
weight of 3 is -1.000000
not used!
deny
deny
weight of 0 is -0.991811
weight of 1 is -0.209451
weight of 2 is -14.400000
weight of 3 is -2.000000
not used!
deny
deny
weight of 0 is -0.499169
weight of 1 is -0.209320
weight of 2 is -14.400000
weight of 3 is -1.000000
used!
weight of 0 is -0.006528
weight of 1 is -0.209188
weight of 2 is -14.400000
weight of 3 is 0.000000
used!
weight of 0 is -0.499169
weight of 1 is -0.222546
weight of 2 is -14.400000
weight of 3 is -1.000000
not used!
deny
deny
deny
deny
deny
deny
weight of 0 is -0.006528
weight of 1 is -0.222471
weight of 2 is -14.400000
weight of 3 is 0.000000
used!
weight of 0 is 0.486113
weight of 1 is -0.222396
weight of 2 is -14.400000
weight of 3 is 1.000000
used!
accept
accept
weight of 0 is 0.978755
weight of 1 is -0.183931
weight of 2 is -14.400000
weight of 3 is 2.000000
used!
weight of 0 is 1.471396
weight of 1 is -0.145466
weight of 2 is -14.400000
weight of 3 is 3.000000
used!
accept
accept
accept
accept
weight of 0 is 1.964037
weight of 1 is -0.107098
weight of 2 is -14.400000
weight of 3 is 4.000000
used!
weight of 0 is 2.456679
weight of 1 is -0.068730
weight of 2 is -14.400000
weight of 3 is 5.000000
used!
weight of 0 is 1.963478
weight of 1 is -0.114305
weight of 2 is -15.644444
weight of 3 is 4.000000
not used!
accept
accept
accept
accept
weight of 0 is 1.470836
weight of 1 is -0.159825
weight of 2 is -15.644444
weight of 3 is 3.000000
not used!
weight of 0 is 0.977636
weight of 1 is -0.205304
weight of 2 is -16.711111
weight of 3 is 2.000000
not used!
weight of 0 is 0.484436
weight of 1 is -0.205309
weight of 2 is -16.711111
weight of 3 is 1.000000
not used!
weight of 0 is -0.008205
weight of 1 is -0.225430
weight of 2 is -16.711111
weight of 3 is 0.000000
not used!
accept
accept
deny
deny
weight of 0 is -0.500847
weight of 1 is -0.266264
weight of 2 is -16.711111
weight of 3 is -1.000000
not used!
weight of 0 is -0.993488
weight of 1 is -0.292998
weight of 2 is -16.711111
weight of 3 is -2.000000
not used!
deny
deny
weight of 0 is -1.486631
weight of 1 is -0.307070
weight of 2 is -16.711111
weight of 3 is -3.000000
not used!
weight of 0 is -1.979830
weight of 1 is -0.311680
weight of 2 is -17.244444
weight of 3 is -4.000000
not used!
deny
deny
deny
deny
deny
deny
weight of 0 is -1.487189
weight of 1 is -0.290117
weight of 2 is -17.244444
weight of 3 is -3.000000
used!
weight of 0 is -0.994548
weight of 1 is -0.268554
weight of 2 is -17.244444
weight of 3 is -2.000000
used!
deny
deny
deny
deny
weight of 0 is -0.501907
weight of 1 is -0.250875
weight of 2 is -17.244444
weight of 3 is -1.000000
used!
weight of 0 is -0.009266
weight of 1 is -0.233196
weight of 2 is -17.244444
weight of 3 is 0.000000
used!
accept
accept
accept
accept
weight of 0 is -0.502331
weight of 1 is -0.267743
weight of 2 is -18.488889
weight of 3 is -1.000000
not used!
weight of 0 is -0.995018
weight of 1 is -0.280800
weight of 2 is -19.777778
weight of 3 is -2.000000
not used!
deny
deny
weight of 0 is -1.487659
weight of 1 is -0.284443
weight of 2 is -19.777778
weight of 3 is -3.000000
not used!
warn: ignoring syscall access(...)
weight of 0 is -1.980724
weight of 1 is -0.301124
weight of 2 is -21.022222
weight of 3 is -4.000000
not used!
deny
deny
deny
deny
weight of 0 is -2.473365
weight of 1 is -0.317786
weight of 2 is -21.022222
weight of 3 is -5.000000
not used!
deny
deny
weight of 0 is -1.980724
weight of 1 is -0.291972
weight of 2 is -21.022222
weight of 3 is -4.000000
used!
weight of 0 is -1.488083
weight of 1 is -0.266158
weight of 2 is -21.022222
weight of 3 is -3.000000
used!
deny
deny
weight of 0 is -1.980724
weight of 1 is -0.282109
weight of 2 is -21.022222
weight of 3 is -4.000000
not used!
deny
deny
deny
deny
deny
deny
weight of 0 is -1.488083
weight of 1 is -0.282090
weight of 2 is -21.022222
weight of 3 is -3.000000
used!
weight of 0 is -0.995442
weight of 1 is -0.282071
weight of 2 is -21.022222
weight of 3 is -2.000000
used!
weight of 0 is -1.488083
weight of 1 is -0.310515
weight of 2 is -21.022222
weight of 3 is -3.000000
not used!
deny
deny
deny
deny
weight of 0 is -1.980724
weight of 1 is -0.310571
weight of 2 is -21.022222
weight of 3 is -4.000000
not used!
deny
deny
deny
deny
weight of 0 is -1.488083
weight of 1 is -0.299036
weight of 2 is -21.022222
weight of 3 is -3.000000
used!
weight of 0 is -0.995441
weight of 1 is -0.287501
weight of 2 is -21.022222
weight of 3 is -2.000000
used!
deny
deny
weight of 0 is -0.502800
weight of 1 is -0.287482
weight of 2 is -21.022222
weight of 3 is -1.000000
used!
weight of 0 is -0.010159
weight of 1 is -0.287463
weight of 2 is -21.022222
weight of 3 is 0.000000
used!
accept
accept
weight of 0 is 0.482482
weight of 1 is -0.287444
weight of 2 is -21.022222
weight of 3 is 1.000000
used!
weight of 0 is 0.975124
weight of 1 is -0.287425
weight of 2 is -21.022222
weight of 3 is 2.000000
used!
accept
accept
accept
accept
accept
accept
weight of 0 is 0.482130
weight of 1 is -0.289012
weight of 2 is -21.022222
weight of 3 is 1.000000
not used!
weight of 0 is -0.010511
weight of 1 is -0.317662
weight of 2 is -21.022222
weight of 3 is 0.000000
not used!
accept
accept
weight of 0 is -0.503152
weight of 1 is -0.317681
weight of 2 is -21.022222
weight of 3 is -1.000000
not used!
deny
deny
deny
deny
weight of 0 is -0.995794
weight of 1 is -0.348175
weight of 2 is -21.022222
weight of 3 is -2.000000
not used!
deny
deny
deny
deny
weight of 0 is -1.488809
weight of 1 is -0.378726
weight of 2 is -21.200000
weight of 3 is -3.000000
not used!
weight of 0 is -1.981959
weight of 1 is -0.379727
weight of 2 is -22.355556
weight of 3 is -4.000000
not used!
deny
deny
weight of 0 is -2.474972
weight of 1 is -0.380597
weight of 2 is -22.533333
weight of 3 is -5.000000
not used!
deny
deny
weight of 0 is -1.982331
weight of 1 is -0.363766
weight of 2 is -22.533333
weight of 3 is -4.000000
used!
weight of 0 is -1.489690
weight of 1 is -0.346935
weight of 2 is -22.533333
weight of 3 is -3.000000
used!
deny
deny
deny
deny
weight of 0 is -0.997049
weight of 1 is -0.346917
weight of 2 is -22.533333
weight of 3 is -2.000000
used!
weight of 0 is -0.504407
weight of 1 is -0.346898
weight of 2 is -22.533333
weight of 3 is -1.000000
used!
deny
deny
weight of 0 is -0.011766
weight of 1 is -0.346879
weight of 2 is -22.533333
weight of 3 is 0.000000
used!
weight of 0 is 0.480875
weight of 1 is -0.346860
weight of 2 is -22.533333
weight of 3 is 1.000000
used!
weight of 0 is -0.012268
weight of 1 is -0.387718
weight of 2 is -23.600000
weight of 3 is 0.000000
not used!
accept
accept
weight of 0 is 0.480373
weight of 1 is -0.317498
weight of 2 is -23.600000
weight of 3 is 1.000000
used!
weight of 0 is 0.973014
weight of 1 is -0.247279
weight of 2 is -23.600000
weight of 3 is 2.000000
used!
accept
accept
accept
accept
deny
deny
weight of 0 is 0.480901
weight of 1 is -0.290210
weight of 2 is -24.844444
weight of 3 is 1.000000
not used!
accept
accept
weight of 0 is -0.011740
weight of 1 is -0.333123
weight of 2 is -24.844444
weight of 3 is 0.000000
not used!
weight of 0 is -0.503861
weight of 1 is -0.376117
weight of 2 is -25.555556
weight of 3 is -1.000000
not used!
weight of 0 is -0.995974
weight of 1 is -0.376129
weight of 2 is -25.733333
weight of 3 is -2.000000
not used!
weight of 0 is -1.488088
weight of 1 is -0.376145
weight of 2 is -25.733333
weight of 3 is -3.000000
not used!
deny
deny
deny
deny
deny
deny
deny
deny
weight of 0 is -1.980729
weight of 1 is -0.404326
weight of 2 is -25.733333
weight of 3 is -4.000000
not used!
deny
deny
weight of 0 is -2.472996
weight of 1 is -0.434777
weight of 2 is -26.000000
weight of 3 is -5.000000
not used!
deny
deny
weight of 0 is -1.980355
weight of 1 is -0.429385
weight of 2 is -26.000000
weight of 3 is -4.000000
used!
weight of 0 is -1.487714
weight of 1 is -0.423993
weight of 2 is -26.000000
weight of 3 is -3.000000
used!
deny
deny
weight of 0 is -0.995072
weight of 1 is -0.423974
weight of 2 is -26.000000
weight of 3 is -2.000000
used!
weight of 0 is -0.502431
weight of 1 is -0.423956
weight of 2 is -26.000000
weight of 3 is -1.000000
used!
deny
deny
deny
deny
deny
deny
deny
deny
deny
deny
weight of 0 is -0.995006
weight of 1 is -0.429364
weight of 2 is -26.177778
weight of 3 is -2.000000
not used!
deny
deny
weight of 0 is -0.502365
weight of 1 is -0.401943
weight of 2 is -26.177778
weight of 3 is -1.000000
used!
weight of 0 is -0.009724
weight of 1 is -0.374522
weight of 2 is -26.177778
weight of 3 is 0.000000
used!
weight of 0 is -0.502299
weight of 1 is -0.374540
weight of 2 is -26.355556
weight of 3 is -1.000000
not used!
deny
deny
deny
deny
deny
deny
weight of 0 is -0.009658
weight of 1 is -0.364959
weight of 2 is -26.355556
weight of 3 is 0.000000
used!
weight of 0 is 0.482983
weight of 1 is -0.355377
weight of 2 is -26.355556
weight of 3 is 1.000000
used!
deny
deny
weight of 0 is -0.009658
weight of 1 is -0.395025
weight of 2 is -26.355556
weight of 3 is 0.000000
not used!
accept
accept
weight of 0 is 0.482983
weight of 1 is -0.395007
weight of 2 is -26.355556
weight of 3 is 1.000000
used!
weight of 0 is 0.975624
weight of 1 is -0.394988
weight of 2 is -26.355556
weight of 3 is 2.000000
used!
accept
accept
accept
accept
weight of 0 is 1.468265
weight of 1 is -0.357303
weight of 2 is -26.355556
weight of 3 is 3.000000
used!
weight of 0 is 1.960907
weight of 1 is -0.319618
weight of 2 is -26.355556
weight of 3 is 4.000000
used!
weight of 0 is 1.467767
weight of 1 is -0.359323
weight of 2 is -26.888889
weight of 3 is 3.000000
not used!
accept
accept
weight of 0 is 0.974749
weight of 1 is -0.400385
weight of 2 is -27.777778
weight of 3 is 2.000000
not used!
weight of 0 is 0.481730
weight of 1 is -0.400407
weight of 2 is -28.933333
weight of 3 is 1.000000
not used!
accept
accept
weight of 0 is -0.011436
weight of 1 is -0.402062
weight of 2 is -30.177778
weight of 3 is 0.000000
not used!
weight of 0 is -0.504224
weight of 1 is -0.403627
weight of 2 is -31.066667
weight of 3 is -1.000000
not used!
weight of 0 is -0.996865
weight of 1 is -0.434243
weight of 2 is -31.066667
weight of 3 is -2.000000
not used!
weight of 0 is -1.489887
weight of 1 is -0.465179
weight of 2 is -31.977778
weight of 3 is -3.000000
not used!
deny
deny
deny
deny
deny
deny
deny
deny
weight of 0 is -1.982528
weight of 1 is -0.465648
weight of 2 is -31.977778
weight of 3 is -4.000000
not used!
deny
deny
weight of 0 is -1.489887
weight of 1 is -0.465592
weight of 2 is -31.977778
weight of 3 is -3.000000
used!
weight of 0 is -0.997246
weight of 1 is -0.465536
weight of 2 is -31.977778
weight of 3 is -2.000000
used!
deny
deny
deny
deny
weight of 0 is -0.504605
weight of 1 is -0.465404
weight of 2 is -31.977778
weight of 3 is -1.000000
used!
weight of 0 is -0.011963
weight of 1 is -0.465273
weight of 2 is -31.977778
weight of 3 is 0.000000
used!
accept
accept
accept
accept
weight of 0 is 0.480678
weight of 1 is -0.465254
weight of 2 is -31.977778
weight of 3 is 1.000000
used!
weight of 0 is 0.973319
weight of 1 is -0.465235
weight of 2 is -31.977778
weight of 3 is 2.000000
used!
accept
accept
weight of 0 is 0.480178
weight of 1 is -0.505959
weight of 2 is -32.866667
weight of 3 is 1.000000
not used!
weight of 0 is -0.012965
weight of 1 is -0.506020
weight of 2 is -34.111111
weight of 3 is 0.000000
not used!
deny
deny
accept
accept
weight of 0 is -0.506106
weight of 1 is -0.546680
weight of 2 is -34.466667
weight of 3 is -1.000000
not used!
deny
deny
deny
deny
weight of 0 is -0.999245
weight of 1 is -0.587247
weight of 2 is -34.822222
weight of 3 is -2.000000
not used!
deny
deny
deny
deny
deny
deny
deny
deny
deny
deny
deny
deny
deny
deny
deny
deny
deny
deny
deny
deny
deny
deny
deny
deny
weight of 0 is -0.506604
weight of 1 is -0.569414
weight of 2 is -34.822222
weight of 3 is -1.000000
used!
weight of 0 is -0.013963
weight of 1 is -0.551581
weight of 2 is -34.822222
weight of 3 is 0.000000
used!
accept
accept
weight of 0 is 0.478678
weight of 1 is -0.551563
weight of 2 is -34.822222
weight of 3 is 1.000000
used!
weight of 0 is 0.971320
weight of 1 is -0.551544
weight of 2 is -34.822222
weight of 3 is 2.000000
used!
deny
deny
accept
accept
weight of 0 is 1.463961
weight of 1 is -0.551525
weight of 2 is -34.822222
weight of 3 is 3.000000
used!
weight of 0 is 1.956602
weight of 1 is -0.551506
weight of 2 is -34.822222
weight of 3 is 4.000000
used!
weight of 0 is 1.463961
weight of 1 is -0.551525
weight of 2 is -34.822222
weight of 3 is 3.000000
not used!
deny
deny
accept
accept
accept
accept
accept
accept
accept
accept
accept
accept
accept
accept
deny
deny
accept
accept
deny
deny
accept
accept
deny
deny
deny
deny
deny
deny
deny
deny
deny
deny
deny
deny
deny
deny
deny
deny
deny
deny
deny
deny
deny
deny
deny
deny
weight of 0 is 1.956939
weight of 1 is -0.544050
weight of 2 is -33.844444
weight of 3 is 4.000000
used!
weight of 0 is 2.449918
weight of 1 is -0.536574
weight of 2 is -32.866667
weight of 3 is 5.000000
used!
deny
deny
accept
accept
weight of 0 is 2.942896
weight of 1 is -0.529011
weight of 2 is -31.533333
weight of 3 is 6.000000
used!
weight of 0 is 3.435875
weight of 1 is -0.521447
weight of 2 is -30.200000
weight of 3 is 7.000000
used!
deny
deny
weight of 0 is 3.928949
weight of 1 is -0.513820
weight of 2 is -28.911111
weight of 3 is 8.000000
used!
weight of 0 is 4.422023
weight of 1 is -0.506193
weight of 2 is -27.622222
weight of 3 is 9.000000
used!
accept
accept
accept
accept
deny
deny
accept
accept
weight of 0 is 3.929382
weight of 1 is -0.506212
weight of 2 is -27.622222
weight of 3 is 8.000000
not used!
accept
accept
weight of 0 is 3.436328
weight of 1 is -0.539803
weight of 2 is -27.622222
weight of 3 is 7.000000
not used!
accept
accept
deny
deny
weight of 0 is 3.929323
weight of 1 is -0.522745
weight of 2 is -26.555556
weight of 3 is 8.000000
used!
weight of 0 is 4.422318
weight of 1 is -0.505687
weight of 2 is -25.488889
weight of 3 is 9.000000
used!
accept
accept
accept
accept
accept
accept
accept
accept
accept
accept
accept
accept
deny
deny
weight of 0 is 4.915418
weight of 1 is -0.485859
weight of 2 is -24.955556
weight of 3 is 10.000000
used!
weight of 0 is 5.408518
weight of 1 is -0.466032
weight of 2 is -24.422222
weight of 3 is 11.000000
used!
deny
deny
deny
deny
weight of 0 is 5.901667
weight of 1 is -0.465963
weight of 2 is -23.355556
weight of 3 is 12.000000
used!
weight of 0 is 6.394815
weight of 1 is -0.465894
weight of 2 is -22.288889
weight of 3 is 13.000000
used!
accept
accept
accept
accept
accept
accept
weight of 0 is 6.887964
weight of 1 is -0.465878
weight of 2 is -21.400000
weight of 3 is 14.000000
used!
weight of 0 is 7.381113
weight of 1 is -0.465861
weight of 2 is -20.511111
weight of 3 is 15.000000
used!
weight of 0 is 6.888472
weight of 1 is -0.466744
weight of 2 is -20.511111
weight of 3 is 14.000000
not used!
accept
accept
deny
deny
accept
accept
accept
accept
accept
accept
accept
accept
weight of 0 is 6.395831
weight of 1 is -0.466763
weight of 2 is -20.511111
weight of 3 is 13.000000
not used!
weight of 0 is 5.903189
weight of 1 is -0.481849
weight of 2 is -20.511111
weight of 3 is 12.000000
not used!
accept
accept
weight of 0 is 5.410548
weight of 1 is -0.498807
weight of 2 is -20.511111
weight of 3 is 11.000000
not used!
deny
deny
deny
deny
deny
deny
deny
deny
weight of 0 is 5.903625
weight of 1 is -0.498785
weight of 2 is -19.800000
weight of 3 is 12.000000
used!
weight of 0 is 6.396702
weight of 1 is -0.498763
weight of 2 is -19.088889
weight of 3 is 13.000000
used!
accept
accept
accept
accept
weight of 0 is 6.889777
weight of 1 is -0.498720
weight of 2 is -18.022222
weight of 3 is 14.000000
used!
weight of 0 is 7.382853
weight of 1 is -0.498678
weight of 2 is -16.955556
weight of 3 is 15.000000
used!
accept
accept
weight of 0 is 7.875930
weight of 1 is -0.497064
weight of 2 is -15.977778
weight of 3 is 16.000000
used!
weight of 0 is 8.369007
weight of 1 is -0.495449
weight of 2 is -15.000000
weight of 3 is 17.000000
used!
weight of 0 is 7.876366
weight of 1 is -0.532627
weight of 2 is -15.000000
weight of 3 is 16.000000
not used!
weight of 0 is 7.383725
weight of 1 is -0.536084
weight of 2 is -15.000000
weight of 3 is 15.000000
not used!
accept
accept
accept
accept
accept
accept
accept
accept
accept
accept
accept
accept
weight of 0 is 6.891084
weight of 1 is -0.536196
weight of 2 is -15.000000
weight of 3 is 14.000000
not used!
accept
accept
accept
accept
accept
accept
deny
deny
accept
accept
accept
accept
warn: ignoring syscall mprotect(...)
accept
accept
deny
deny
accept
accept
accept
accept
accept
accept
accept
accept
accept
accept
weight of 0 is 6.398443
weight of 1 is -0.539909
weight of 2 is -15.000000
weight of 3 is 13.000000
not used!
accept
accept
weight of 0 is 5.905801
weight of 1 is -0.564490
weight of 2 is -15.000000
weight of 3 is 12.000000
not used!
weight of 0 is 5.413160
weight of 1 is -0.564508
weight of 2 is -15.000000
weight of 3 is 11.000000
not used!
accept
accept
accept
accept
weight of 0 is 4.920519
weight of 1 is -0.564621
weight of 2 is -15.000000
weight of 3 is 10.000000
not used!
accept
accept
accept
accept
accept
accept
weight of 0 is 4.427832
weight of 1 is -0.568078
weight of 2 is -15.000000
weight of 3 is 9.000000
not used!
accept
accept
accept
accept
accept
accept
weight of 0 is 3.935191
weight of 1 is -0.602807
weight of 2 is -15.000000
weight of 3 is 8.000000
not used!
accept
accept
accept
accept
deny
deny
weight of 0 is 3.442212
weight of 1 is -0.610413
weight of 2 is -15.088889
weight of 3 is 7.000000
not used!
weight of 0 is 2.949139
weight of 1 is -0.610415
weight of 2 is -15.088889
weight of 3 is 6.000000
not used!
accept
accept
weight of 0 is 2.456498
weight of 1 is -0.637557
weight of 2 is -15.088889
weight of 3 is 5.000000
not used!
accept
accept
accept
accept
accept
accept
deny
deny
deny
deny
accept
accept
weight of 0 is 1.963790
weight of 1 is -0.668466
weight of 2 is -15.444444
weight of 3 is 4.000000
not used!
weight of 0 is 1.470642
weight of 1 is -0.709706
weight of 2 is -15.577778
weight of 3 is 3.000000
not used!
weight of 0 is 0.978001
weight of 1 is -0.750954
weight of 2 is -15.577778
weight of 3 is 2.000000
not used!
weight of 0 is 0.485162
weight of 1 is -0.792255
weight of 2 is -16.111111
weight of 3 is 1.000000
not used!
deny
deny
accept
accept
weight of 0 is -0.007479
weight of 1 is -0.808100
weight of 2 is -16.111111
weight of 3 is 0.000000
not used!
weight of 0 is -0.500311
weight of 1 is -0.818306
weight of 2 is -16.111111
weight of 3 is -1.000000
not used!
weight of 0 is -0.992953
weight of 1 is -0.855467
weight of 2 is -16.111111
weight of 3 is -2.000000
not used!
deny
deny
deny
deny
deny
deny
deny
deny
deny
deny
deny
deny
deny
deny
deny
deny
deny
deny
deny
deny
deny
deny
deny
deny
weight of 0 is -0.499982
weight of 1 is -0.848939
weight of 2 is -15.666667
weight of 3 is -1.000000
used!
weight of 0 is -0.007010
weight of 1 is -0.842410
weight of 2 is -15.222222
weight of 3 is 0.000000
used!
deny
deny
weight of 0 is 0.486051
weight of 1 is -0.842409
weight of 2 is -15.222222
weight of 3 is 1.000000
used!
weight of 0 is 0.979113
weight of 1 is -0.842408
weight of 2 is -15.222222
weight of 3 is 2.000000
used!
accept
accept
accept
accept
weight of 0 is 1.472175
weight of 1 is -0.835145
weight of 2 is -13.866667
weight of 3 is 3.000000
used!
weight of 0 is 1.965237
weight of 1 is -0.827881
weight of 2 is -12.511111
weight of 3 is 4.000000
used!
deny
deny
deny
deny
weight of 0 is 1.472390
weight of 1 is -0.827970
weight of 2 is -13.222222
weight of 3 is 3.000000
not used!
weight of 0 is 0.979313
weight of 1 is -0.827994
weight of 2 is -13.577778
weight of 3 is 2.000000
not used!
weight of 0 is 0.486672
weight of 1 is -0.869632
weight of 2 is -13.577778
weight of 3 is 1.000000
not used!
accept
accept
weight of 0 is -0.005969
weight of 1 is -0.909360
weight of 2 is -13.577778
weight of 3 is 0.000000
not used!
accept
accept
accept
accept
weight of 0 is -0.499097
weight of 1 is -0.948956
weight of 2 is -14.466667
weight of 3 is -1.000000
not used!
weight of 0 is -0.991738
weight of 1 is -0.971708
weight of 2 is -14.466667
weight of 3 is -2.000000
not used!
deny
deny
deny
deny
weight of 0 is -1.496693
weight of 1 is -0.971764
weight of 2 is -14.466667
weight of 3 is -3.000000
not used!
deny
deny
deny
deny
deny
deny
weight of 0 is -1.003612
weight of 1 is -0.971742
weight of 2 is -13.133333
weight of 3 is -2.000000
used!
weight of 0 is -0.510530
weight of 1 is -0.971720
weight of 2 is -11.800000
weight of 3 is -1.000000
used!
deny
deny
weight of 0 is -1.003675
weight of 1 is -1.955732
weight of 2 is -12.511111
weight of 3 is -2.000000
not used!
deny
deny
weight of 0 is -1.496821
weight of 1 is -2.939828
weight of 2 is -12.511111
weight of 3 is -3.000000
not used!
deny
deny
deny
deny
weight of 0 is -1.003740
weight of 1 is -2.922548
weight of 2 is -11.444444
weight of 3 is -2.000000
used!
weight of 0 is -0.510658
weight of 1 is -2.905269
weight of 2 is -10.377778
weight of 3 is -1.000000
used!
weight of 0 is -1.003299
weight of 1 is -2.905532
weight of 2 is -10.377778
weight of 3 is -2.000000
not used!
deny
deny
weight of 0 is -0.510219
weight of 1 is -2.905477
weight of 2 is -9.222222
weight of 3 is -1.000000
used!
weight of 0 is -0.017139
weight of 1 is -2.905422
weight of 2 is -8.066667
weight of 3 is 0.000000
used!
warn: ignoring syscall mprotect(...)
deny
deny
accept
accept
weight of 0 is -0.509780
weight of 1 is -2.965048
weight of 2 is -8.066667
weight of 3 is -1.000000
not used!
deny
deny
deny
deny
weight of 0 is -1.002421
weight of 1 is -2.965611
weight of 2 is -8.066667
weight of 3 is -2.000000
not used!
deny
deny
weight of 0 is -0.509272
weight of 1 is -1.052463
weight of 2 is -7.888889
weight of 3 is -1.000000
used!
weight of 0 is -0.016124
weight of 1 is 0.860686
weight of 2 is -7.711111
weight of 3 is 0.000000
used!
deny
deny
accept
accept
deny
deny
accept
accept
weight of 0 is 0.500529
weight of 1 is 0.860944
weight of 2 is -7.355556
weight of 3 is 1.000000
used!
weight of 0 is 1.017183
weight of 1 is 0.861203
weight of 2 is -7.000000
weight of 3 is 2.000000
used!
accept
accept
accept
accept
weight of 0 is 1.510332
weight of 1 is 2.774342
weight of 2 is -6.466667
weight of 3 is 3.000000
used!
weight of 0 is 2.003481
weight of 1 is 4.687481
weight of 2 is -5.933333
weight of 3 is 4.000000
used!
weight of 0 is 1.510840
weight of 1 is 4.687425
weight of 2 is -5.933333
weight of 3 is 3.000000
not used!
accept
accept
accept
accept
weight of 0 is 2.003920
weight of 1 is 4.687445
weight of 2 is -5.933333
weight of 3 is 4.000000
used!
weight of 0 is 2.497000
weight of 1 is 4.687465
weight of 2 is -5.933333
weight of 3 is 5.000000
used!
weight of 0 is 2.005220
weight of 1 is 4.687459
weight of 2 is -5.933333
weight of 3 is 4.000000
not used!
accept
accept
weight of 0 is 1.512579
weight of 1 is 4.605850
weight of 2 is -5.933333
weight of 3 is 3.000000
not used!
accept
accept
accept
accept
weight of 0 is 1.019607
weight of 1 is 4.598551
weight of 2 is -6.022222
weight of 3 is 2.000000
not used!
weight of 0 is 0.526545
weight of 1 is 4.591282
weight of 2 is -6.044444
weight of 3 is 1.000000
not used!
deny
deny
deny
deny
accept
accept
deny
deny
deny
deny
accept
accept
accept
accept
deny
deny
weight of 0 is 0.033874
weight of 1 is 4.563664
weight of 2 is -6.044444
weight of 3 is 0.000000
not used!
weight of 0 is -0.458767
weight of 1 is 4.536103
weight of 2 is -6.044444
weight of 3 is -1.000000
not used!
deny
deny
accept
accept
deny
deny
deny
deny
deny
deny
deny
deny
deny
deny
deny
deny
deny
deny
weight of 0 is 0.057834
weight of 1 is 4.536123
weight of 2 is -5.511111
weight of 3 is 0.000000
used!
weight of 0 is 0.574436
weight of 1 is 4.536143
weight of 2 is -4.977778
weight of 3 is 1.000000
used!
accept
accept
accept
accept
weight of 0 is 1.091038
weight of 1 is 4.536363
weight of 2 is -4.533333
weight of 3 is 2.000000
used!
weight of 0 is 1.607641
weight of 1 is 4.536583
weight of 2 is -4.088889
weight of 3 is 3.000000
used!
accept
accept
accept
accept
warn: ignoring syscall mprotect(...)
weight of 0 is 1.091284
weight of 1 is 4.536570
weight of 2 is -4.088889
weight of 3 is 2.000000
not used!
accept
accept
accept
accept
accept
accept
accept
accept
weight of 0 is 0.574631
weight of 1 is 2.623512
weight of 2 is -4.088889
weight of 3 is 1.000000
not used!
deny
deny
weight of 0 is 0.057978
weight of 1 is 0.710354
weight of 2 is -4.088889
weight of 3 is 0.000000
not used!
weight of 0 is -0.435171
weight of 1 is -1.202792
weight of 2 is -4.088889
weight of 3 is -1.000000
not used!
deny
deny
weight of 0 is -0.951826
weight of 1 is -3.115995
weight of 2 is -4.088889
weight of 3 is -2.000000
not used!
deny
deny
deny
deny
deny
deny
deny
deny
weight of 0 is -0.427240
weight of 1 is -3.115570
weight of 2 is -3.555556
weight of 3 is -1.000000
used!
weight of 0 is 0.097346
weight of 1 is -3.115145
weight of 2 is -3.022222
weight of 3 is 0.000000
used!
accept
accept
weight of 0 is 0.621931
weight of 1 is -2.470903
weight of 2 is -2.844444
weight of 3 is 1.000000
used!
weight of 0 is 1.146517
weight of 1 is -1.826661
weight of 2 is -2.666667
weight of 3 is 2.000000
used!
accept
accept
weight of 0 is 1.671103
weight of 1 is -1.826642
weight of 2 is -2.488889
weight of 3 is 3.000000
used!
weight of 0 is 2.195689
weight of 1 is -1.826624
weight of 2 is -2.311111
weight of 3 is 4.000000
used!
weight of 0 is 1.702538
weight of 1 is -3.739620
weight of 2 is -2.311111
weight of 3 is 3.000000
not used!
deny
deny
weight of 0 is 2.219208
weight of 1 is -3.095376
weight of 2 is -1.066667
weight of 3 is 4.000000
used!
weight of 0 is 2.735878
weight of 1 is -2.451132
weight of 2 is 0.177778
weight of 3 is 5.000000
used!
accept
accept
accept
accept
weight of 0 is 3.252548
weight of 1 is -2.451087
weight of 2 is 1.244444
weight of 3 is 6.000000
used!
weight of 0 is 3.769219
weight of 1 is -2.451042
weight of 2 is 2.311111
weight of 3 is 7.000000
used!
weight of 0 is 3.264019
weight of 1 is -3.437229
weight of 2 is 1.955556
weight of 3 is 6.000000
not used!
accept
accept
accept
accept
weight of 0 is 2.770915
weight of 1 is -4.425052
weight of 2 is 0.711111
weight of 3 is 5.000000
not used!
weight of 0 is 2.265869
weight of 1 is -5.418272
weight of 2 is 0.022222
weight of 3 is 4.000000
not used!
deny
deny
deny
deny
accept
accept
accept
accept
accept
accept
weight of 0 is 1.772790
weight of 1 is -5.428930
weight of 2 is 0.000000
weight of 3 is 3.000000
not used!
accept
accept
accept
accept
weight of 0 is 1.279810
weight of 1 is -5.436701
weight of 2 is -0.088889
weight of 3 is 2.000000
not used!
weight of 0 is 0.786734
weight of 1 is -5.444402
weight of 2 is -0.111111
weight of 3 is 1.000000
not used!
accept
accept
accept
accept
accept
accept
accept
accept
deny
deny
accept
accept
accept
accept
accept
accept
accept
accept
accept
accept
accept
accept
accept
accept
deny
deny
warn: ignoring syscall mprotect(...)
weight of 0 is 0.294093
weight of 1 is -7.399410
weight of 2 is -0.111111
weight of 3 is 0.000000
not used!
weight of 0 is -0.222509
weight of 1 is -9.354396
weight of 2 is -0.111111
weight of 3 is -1.000000
not used!
weight of 0 is -0.739187
weight of 1 is -9.354459
weight of 2 is -1.000000
weight of 3 is -2.000000
not used!
deny
deny
weight of 0 is -1.232031
weight of 1 is -11.271077
weight of 2 is -2.244444
weight of 3 is -3.000000
not used!
deny
deny
deny
deny
deny
deny
deny
deny
deny
deny
weight of 0 is -0.698966
weight of 1 is -11.270583
weight of 2 is -1.888889
weight of 3 is -2.000000
used!
weight of 0 is -0.165902
weight of 1 is -11.270090
weight of 2 is -1.533333
weight of 3 is -1.000000
used!
deny
deny
weight of 0 is 0.367163
weight of 1 is -9.936085
weight of 2 is -1.533333
weight of 3 is 0.000000
used!
weight of 0 is 0.900228
weight of 1 is -8.602080
weight of 2 is -1.533333
weight of 3 is 1.000000
used!
accept
accept
weight of 0 is 1.433293
weight of 1 is -8.602062
weight of 2 is -1.533333
weight of 3 is 2.000000
used!
weight of 0 is 1.966358
weight of 1 is -8.602043
weight of 2 is -1.533333
weight of 3 is 3.000000
used!
deny
deny
deny
deny
accept
accept
deny
deny
weight of 0 is 2.483032
weight of 1 is -7.267991
weight of 2 is -1.533333
weight of 3 is 4.000000
used!
weight of 0 is 2.999707
weight of 1 is -5.933939
weight of 2 is -1.533333
weight of 3 is 5.000000
used!
weight of 0 is 2.475415
weight of 1 is -5.933995
weight of 2 is -1.533333
weight of 3 is 4.000000
not used!
accept
accept
deny
deny
weight of 0 is 1.950829
weight of 1 is -5.934014
weight of 2 is -1.711111
weight of 3 is 3.000000
not used!
weight of 0 is 1.426242
weight of 1 is -6.578352
weight of 2 is -1.888889
weight of 3 is 2.000000
not used!
weight of 0 is 0.909571
weight of 1 is -7.222683
weight of 2 is -1.888889
weight of 3 is 1.000000
not used!
weight of 0 is 0.392953
weight of 1 is -7.223918
weight of 2 is -2.955556
weight of 3 is 0.000000
not used!
deny
deny
deny
deny
weight of 0 is -0.099688
weight of 1 is -9.182431
weight of 2 is -2.955556
weight of 3 is -1.000000
not used!
deny
deny
deny
deny
deny
deny
deny
deny
deny
deny
deny
deny
deny
deny
weight of 0 is 0.393301
weight of 1 is -9.174325
weight of 2 is -2.511111
weight of 3 is 0.000000
used!
weight of 0 is 0.886291
weight of 1 is -9.166218
weight of 2 is -2.066667
weight of 3 is 1.000000
used!
deny
deny
accept
accept
accept
accept
weight of 0 is 1.379384
weight of 1 is -9.157850
weight of 2 is -1.044444
weight of 3 is 2.000000
used!
weight of 0 is 1.872478
weight of 1 is -9.149482
weight of 2 is -0.022222
weight of 3 is 3.000000
used!
weight of 0 is 1.379456
weight of 1 is -9.155115
weight of 2 is -0.222222
weight of 3 is 2.000000
not used!
weight of 0 is 0.886501
weight of 1 is -9.160424
weight of 2 is -1.022222
weight of 3 is 1.000000
not used!
weight of 0 is 0.393472
weight of 1 is -9.166319
weight of 2 is -1.488889
weight of 3 is 0.000000
not used!
weight of 0 is -0.099485
weight of 1 is -9.172051
weight of 2 is -1.755556
weight of 3 is -1.000000
not used!
weight of 0 is -0.592517
weight of 1 is -9.178044
weight of 2 is -2.022222
weight of 3 is -2.000000
not used!
weight of 0 is -1.085548
weight of 1 is -9.183982
weight of 2 is -3.088889
weight of 3 is -3.000000
not used!
weight of 0 is -1.578579
weight of 1 is -9.184050
weight of 2 is -3.577778
weight of 3 is -4.000000
not used!
weight of 0 is -2.071611
weight of 1 is -9.184085
weight of 2 is -4.266667
weight of 3 is -5.000000
not used!
deny
deny
deny
deny
deny
deny
deny
deny
deny
deny
weight of 0 is -1.554999
weight of 1 is -9.184063
weight of 2 is -3.288889
weight of 3 is -4.000000
used!
weight of 0 is -1.038388
weight of 1 is -9.184040
weight of 2 is -2.311111
weight of 3 is -3.000000
used!
deny
deny
weight of 0 is -0.521776
weight of 1 is -7.283685
weight of 2 is -1.600000
weight of 3 is -2.000000
used!
weight of 0 is -0.005165
weight of 1 is -5.383329
weight of 2 is -0.888889
weight of 3 is -1.000000
used!
deny
deny
deny
deny
deny
deny
deny
deny
deny
deny
weight of 0 is 0.511446
weight of 1 is -5.383274
weight of 2 is -0.088889
weight of 3 is 0.000000
used!
weight of 0 is 1.028056
weight of 1 is -5.383219
weight of 2 is 0.711111
weight of 3 is 1.000000
used!
accept
accept
weight of 0 is 1.544668
weight of 1 is -5.383194
weight of 2 is 1.066667
weight of 3 is 2.000000
used!
weight of 0 is 2.061279
weight of 1 is -5.383170
weight of 2 is 1.422222
weight of 3 is 3.000000
used!
deny
deny
warn: ignoring syscall mprotect(...)
weight of 0 is 1.544671
weight of 1 is -5.383487
weight of 2 is 0.177778
weight of 3 is 2.000000
not used!
weight of 0 is 1.028065
weight of 1 is -5.383535
weight of 2 is -0.266667
weight of 3 is 1.000000
not used!
deny
deny
weight of 0 is 0.511458
weight of 1 is -5.383560
weight of 2 is -0.266667
weight of 3 is 0.000000
not used!
accept
accept
weight of 0 is -0.005224
weight of 1 is -5.383621
weight of 2 is -1.333333
weight of 3 is -1.000000
not used!
deny
deny
deny
deny
deny
deny
weight of 0 is 0.542014
weight of 1 is -5.383564
weight of 2 is -1.333333
weight of 3 is 0.000000
used!
weight of 0 is 1.089252
weight of 1 is -5.383508
weight of 2 is -1.333333
weight of 3 is 1.000000
used!
accept
accept
weight of 0 is 1.636490
weight of 1 is -5.383489
weight of 2 is -1.333333
weight of 3 is 2.000000
used!
weight of 0 is 2.183728
weight of 1 is -5.383470
weight of 2 is -1.333333
weight of 3 is 3.000000
used!
accept
accept
accept
accept
accept
accept
accept
accept
accept
accept
accept
accept
accept
accept
weight of 0 is 1.650662
weight of 1 is -5.383489
weight of 2 is -1.333333
weight of 3 is 2.000000
not used!
accept
accept
deny
deny
accept
accept
weight of 0 is 2.167340
weight of 1 is -2.873997
weight of 2 is -1.333333
weight of 3 is 3.000000
used!
weight of 0 is 2.684019
weight of 1 is -0.364505
weight of 2 is -1.333333
weight of 3 is 4.000000
used!
accept
accept
accept
accept
weight of 0 is 2.159483
weight of 1 is -1.009859
weight of 2 is -2.400000
weight of 3 is 3.000000
not used!
accept
accept
accept
accept
accept
accept
accept
accept
deny
deny
accept
accept
accept
accept
accept
accept
accept
accept
accept
accept
weight of 0 is 1.666494
weight of 1 is -1.018281
weight of 2 is -3.022222
weight of 3 is 2.000000
not used!
weight of 0 is 1.173400
weight of 1 is -1.026658
weight of 2 is -3.488889
weight of 3 is 1.000000
not used!
deny
deny
deny
deny
deny
deny
deny
deny
accept
accept
accept
accept
deny
deny
deny
deny
deny
deny
accept
accept
deny
deny
accept
accept
weight of 0 is 1.666041
weight of 1 is 0.921902
weight of 2 is -3.488889
weight of 3 is 2.000000
used!
weight of 0 is 2.158682
weight of 1 is 2.870463
weight of 2 is -3.488889
weight of 3 is 3.000000
used!
accept
accept
accept
accept
accept
accept
accept
accept
accept
accept
accept
accept
accept
accept
accept
accept
accept
accept
accept
accept
weight of 0 is 1.641997
weight of 1 is 2.870460
weight of 2 is -4.733333
weight of 3 is 2.000000
not used!
accept
accept
accept
accept
accept
accept
accept
accept
accept
accept
accept
accept
accept
accept
accept
accept
accept
accept
accept
accept
accept
accept
weight of 0 is 1.094754
weight of 1 is 2.870404
weight of 2 is -4.733333
weight of 3 is 1.000000
not used!
accept
accept
accept
accept
deny
deny
accept
accept
weight of 0 is 0.578074
weight of 1 is 2.870343
weight of 2 is -5.444444
weight of 3 is 0.000000
not used!
weight of 0 is 0.061395
weight of 1 is 2.870261
weight of 2 is -5.622222
weight of 3 is -1.000000
not used!
deny
deny
deny
deny
deny
deny
accept
accept
deny
deny
weight of 0 is -0.486116
weight of 1 is 2.870204
weight of 2 is -5.622222
weight of 3 is -2.000000
not used!
weight of 0 is -1.033626
weight of 1 is 2.870186
weight of 2 is -5.622222
weight of 3 is -3.000000
not used!
accept
accept
accept
accept
weight of 0 is -0.500347
weight of 1 is 2.870190
weight of 2 is -5.622222
weight of 3 is -2.000000
used!
weight of 0 is 0.032934
weight of 1 is 2.870195
weight of 2 is -5.622222
weight of 3 is -1.000000
used!
deny
deny
weight of 0 is -0.459707
weight of 1 is -1.595692
weight of 2 is -5.622222
weight of 3 is -2.000000
not used!
deny
deny
deny
deny
weight of 0 is 0.073574
weight of 1 is -1.595633
weight of 2 is -5.444444
weight of 3 is -1.000000
used!
weight of 0 is 0.606855
weight of 1 is -1.595574
weight of 2 is -5.266667
weight of 3 is 0.000000
used!
accept
accept
weight of 0 is 1.140136
weight of 1 is -1.595553
weight of 2 is -4.911111
weight of 3 is 1.000000
used!
weight of 0 is 1.673418
weight of 1 is -1.595532
weight of 2 is -4.555556
weight of 3 is 2.000000
used!
weight of 0 is 1.140402
weight of 1 is -1.595534
weight of 2 is -4.555556
weight of 3 is 1.000000
not used!
deny
deny
deny
deny
deny
deny
deny
deny
deny
deny
weight of 0 is 1.633044
weight of 1 is -1.536035
weight of 2 is -4.555556
weight of 3 is 2.000000
used!
weight of 0 is 2.125685
weight of 1 is -1.476536
weight of 2 is -4.555556
weight of 3 is 3.000000
used!
accept
accept
accept
accept
deny
deny
accept
accept
weight of 0 is 1.633044
weight of 1 is -1.476968
weight of 2 is -4.555556
weight of 3 is 2.000000
not used!
accept
accept
deny
deny
accept
accept
accept
accept
weight of 0 is 2.125685
weight of 1 is 1.829138
weight of 2 is -4.555556
weight of 3 is 3.000000
used!
weight of 0 is 2.618326
weight of 1 is 5.135243
weight of 2 is -4.555556
weight of 3 is 4.000000
used!
accept
accept
accept
accept
accept
accept
deny
deny
accept
accept
accept
accept
accept
accept
accept
accept
accept
accept
accept
accept
accept
accept
accept
accept
accept
accept
accept
accept
accept
accept
accept
accept
accept
accept
accept
accept
accept
accept
deny
deny
accept
accept
accept
accept
accept
accept
accept
accept
accept
accept
deny
deny
accept
accept
deny
deny
weight of 0 is 2.125685
weight of 1 is 5.135224
weight of 2 is -4.555556
weight of 3 is 3.000000
not used!
accept
accept
accept
accept
accept
accept
accept
accept
accept
accept
weight of 0 is 1.633043
weight of 1 is 5.134623
weight of 2 is -4.555556
weight of 3 is 2.000000
not used!
accept
accept
accept
accept
accept
accept
accept
accept
weight of 0 is 1.140402
weight of 1 is 5.119518
weight of 2 is -4.555556
weight of 3 is 1.000000
not used!
accept
accept
weight of 0 is 0.647761
weight of 1 is 5.119443
weight of 2 is -4.555556
weight of 3 is 0.000000
not used!
accept
accept
weight of 0 is 0.155091
weight of 1 is 5.117134
weight of 2 is -5.800000
weight of 3 is -1.000000
not used!
deny
deny
weight of 0 is -0.337550
weight of 1 is 5.114882
weight of 2 is -5.800000
weight of 3 is -2.000000
not used!
deny
deny
deny
deny
weight of 0 is -0.830191
weight of 1 is 5.099383
weight of 2 is -5.800000
weight of 3 is -3.000000
not used!
deny
deny
deny
deny
weight of 0 is -1.322833
weight of 1 is 5.099101
weight of 2 is -5.800000
weight of 3 is -4.000000
not used!
deny
deny
weight of 0 is -0.830191
weight of 1 is 5.119748
weight of 2 is -5.800000
weight of 3 is -3.000000
used!
weight of 0 is -0.337550
weight of 1 is 5.140395
weight of 2 is -5.800000
weight of 3 is -2.000000
used!
deny
deny
weight of 0 is 0.155091
weight of 1 is 5.140414
weight of 2 is -5.800000
weight of 3 is -1.000000
used!
weight of 0 is 0.647733
weight of 1 is 5.140433
weight of 2 is -5.800000
weight of 3 is 0.000000
used!
weight of 0 is 0.155092
weight of 1 is 5.134271
weight of 2 is -5.800000
weight of 3 is -1.000000
not used!
deny
deny
deny
deny
deny
deny
weight of 0 is 0.647733
weight of 1 is 5.134327
weight of 2 is -5.800000
weight of 3 is 0.000000
used!
weight of 0 is 1.140374
weight of 1 is 5.134384
weight of 2 is -5.800000
weight of 3 is 1.000000
used!
accept
accept
accept
accept
weight of 0 is 0.647733
weight of 1 is 5.134327
weight of 2 is -5.800000
weight of 3 is 0.000000
not used!
accept
accept
accept
accept
accept
accept
weight of 0 is 0.155092
weight of 1 is 5.133613
weight of 2 is -5.800000
weight of 3 is -1.000000
not used!
deny
deny
deny
deny
deny
deny
weight of 0 is 0.702558
weight of 1 is 5.133670
weight of 2 is -5.800000
weight of 3 is 0.000000
used!
weight of 0 is 1.250024
weight of 1 is 5.133726
weight of 2 is -5.800000
weight of 3 is 1.000000
used!
accept
accept
weight of 0 is 1.797491
weight of 1 is 5.133745
weight of 2 is -5.800000
weight of 3 is 2.000000
used!
weight of 0 is 2.344958
weight of 1 is 5.133764
weight of 2 is -5.800000
weight of 3 is 3.000000
used!
weight of 0 is 1.852316
weight of 1 is 5.120349
weight of 2 is -5.800000
weight of 3 is 2.000000
not used!
accept
accept
accept
accept
weight of 0 is 1.359675
weight of 1 is 5.103497
weight of 2 is -5.800000
weight of 3 is 1.000000
not used!
accept
accept
accept
accept
accept
accept
accept
accept
accept
accept
accept
accept
weight of 0 is 0.867034
weight of 1 is 5.103441
weight of 2 is -5.800000
weight of 3 is 0.000000
not used!
accept
accept
accept
accept
accept
accept
weight of 0 is 0.333754
weight of 1 is 1.795569
weight of 2 is -6.866667
weight of 3 is -1.000000
not used!
deny
deny
deny
deny
deny
deny
deny
deny
deny
deny
weight of 0 is 0.826395
weight of 1 is 1.803760
weight of 2 is -6.866667
weight of 3 is 0.000000
used!
weight of 0 is 1.319036
weight of 1 is 1.811952
weight of 2 is -6.866667
weight of 3 is 1.000000
used!
accept
accept
accept
accept
accept
accept
weight of 0 is 1.811678
weight of 1 is 1.819880
weight of 2 is -6.866667
weight of 3 is 2.000000
used!
weight of 0 is 2.304319
weight of 1 is 1.827808
weight of 2 is -6.866667
weight of 3 is 3.000000
used!
accept
accept
accept
accept
weight of 0 is 1.812408
weight of 1 is 1.756830
weight of 2 is -6.866667
weight of 3 is 2.000000
not used!
accept
accept
accept
accept
accept
accept
accept
accept
accept
accept
accept
accept
accept
accept
accept
accept
accept
accept
accept
accept
weight of 0 is 1.319767
weight of 1 is -2.705151
weight of 2 is -6.866667
weight of 3 is 1.000000
not used!
weight of 0 is 0.772308
weight of 1 is -7.167127
weight of 2 is -8.111111
weight of 3 is 0.000000
not used!
deny
deny
accept
accept
deny
deny
weight of 0 is 1.305668
weight of 1 is -7.167071
weight of 2 is -7.755556
weight of 3 is 1.000000
used!
weight of 0 is 1.839028
weight of 1 is -7.167015
weight of 2 is -7.400000
weight of 3 is 2.000000
used!
accept
accept
deny
deny
weight of 0 is 1.346387
weight of 1 is -11.628823
weight of 2 is -7.400000
weight of 3 is 1.000000
not used!
deny
deny
weight of 0 is 0.852893
weight of 1 is -11.697858
weight of 2 is -8.155556
weight of 3 is 0.000000
not used!
accept
accept
deny
deny
deny
deny
weight of 0 is 0.360252
weight of 1 is -12.718803
weight of 2 is -8.155556
weight of 3 is -1.000000
not used!
deny
deny
deny
deny
weight of 0 is 0.893614
weight of 1 is -11.577495
weight of 2 is -8.155556
weight of 3 is 0.000000
used!
weight of 0 is 1.426977
weight of 1 is -10.436186
weight of 2 is -8.155556
weight of 3 is 1.000000
used!
deny
deny
weight of 0 is 1.974361
weight of 1 is -9.294770
weight of 2 is -8.155556
weight of 3 is 2.000000
used!
weight of 0 is 2.521745
weight of 1 is -8.153353
weight of 2 is -8.155556
weight of 3 is 3.000000
used!
deny
deny
weight of 0 is 3.055107
weight of 1 is -8.153332
weight of 2 is -7.977778
weight of 3 is 4.000000
used!
weight of 0 is 3.588470
weight of 1 is -8.153311
weight of 2 is -7.800000
weight of 3 is 5.000000
used!
accept
accept
weight of 0 is 4.121833
weight of 1 is -8.153290
weight of 2 is -7.444444
weight of 3 is 6.000000
used!
weight of 0 is 4.655196
weight of 1 is -8.153269
weight of 2 is -7.088889
weight of 3 is 7.000000
used!
accept
accept
weight of 0 is 5.202580
weight of 1 is -7.011904
weight of 2 is -7.088889
weight of 3 is 8.000000
used!
weight of 0 is 5.749964
weight of 1 is -5.870539
weight of 2 is -7.088889
weight of 3 is 9.000000
used!
accept
accept
weight of 0 is 6.283327
weight of 1 is -4.729268
weight of 2 is -7.088889
weight of 3 is 10.000000
used!
weight of 0 is 6.816691
weight of 1 is -3.587997
weight of 2 is -7.088889
weight of 3 is 11.000000
used!
accept
accept
weight of 0 is 6.300264
weight of 1 is -3.588165
weight of 2 is -7.422222
weight of 3 is 10.000000
not used!
accept
accept
weight of 0 is 5.783700
weight of 1 is -5.464591
weight of 2 is -7.422222
weight of 3 is 9.000000
not used!
accept
accept
weight of 0 is 5.259230
weight of 1 is -6.108163
weight of 2 is -8.488889
weight of 3 is 8.000000
not used!
accept
accept
accept
accept
weight of 0 is 4.726102
weight of 1 is -6.823848
weight of 2 is -8.644444
weight of 3 is 7.000000
not used!
accept
accept
accept
accept
accept
accept
accept
accept
accept
accept
weight of 0 is 4.178641
weight of 1 is -6.823851
weight of 2 is -9.888889
weight of 3 is 6.000000
not used!
deny
deny
accept
accept
accept
accept
weight of 0 is 4.712009
weight of 1 is -5.682773
weight of 2 is -9.533333
weight of 3 is 7.000000
used!
weight of 0 is 5.245376
weight of 1 is -4.541695
weight of 2 is -9.177778
weight of 3 is 8.000000
used!
weight of 0 is 4.697917
weight of 1 is -4.541731
weight of 2 is -9.177778
weight of 3 is 7.000000
not used!
accept
accept
weight of 0 is 4.192740
weight of 1 is -7.983553
weight of 2 is -9.755556
weight of 3 is 6.000000
not used!
deny
deny
deny
deny
accept
accept
accept
accept
weight of 0 is 4.726108
weight of 1 is -6.842510
weight of 2 is -9.577778
weight of 3 is 7.000000
used!
weight of 0 is 5.259476
weight of 1 is -5.701467
weight of 2 is -9.400000
weight of 3 is 8.000000
used!
weight of 0 is 4.767074
weight of 1 is -6.741614
weight of 2 is -9.400000
weight of 3 is 7.000000
not used!
accept
accept
accept
accept
weight of 0 is 4.261892
weight of 1 is -7.782110
weight of 2 is -9.400000
weight of 3 is 6.000000
not used!
accept
accept
weight of 0 is 3.714432
weight of 1 is -7.782139
weight of 2 is -9.933333
weight of 3 is 5.000000
not used!
accept
accept
accept
accept
accept
accept
deny
deny
deny
deny
weight of 0 is 3.166970
weight of 1 is -7.782195
weight of 2 is -9.933333
weight of 3 is 4.000000
not used!
accept
accept
weight of 0 is 3.700340
weight of 1 is -6.641267
weight of 2 is -9.577778
weight of 3 is 5.000000
used!
weight of 0 is 4.233711
weight of 1 is -5.500339
weight of 2 is -9.222222
weight of 3 is 6.000000
used!
accept
accept
weight of 0 is 3.709377
weight of 1 is -7.372379
weight of 2 is -9.222222
weight of 3 is 5.000000
not used!
deny
deny
weight of 0 is 3.184912
weight of 1 is -7.372431
weight of 2 is -9.555556
weight of 3 is 4.000000
not used!
accept
accept
weight of 0 is 3.718284
weight of 1 is -6.231540
weight of 2 is -9.200000
weight of 3 is 5.000000
used!
weight of 0 is 4.251655
weight of 1 is -5.090650
weight of 2 is -8.844444
weight of 3 is 6.000000
used!
weight of 0 is 3.718397
weight of 1 is -6.247092
weight of 2 is -9.955556
weight of 3 is 5.000000
not used!
accept
accept
accept
accept
accept
accept
accept
accept
accept
accept
deny
deny
accept
accept
accept
accept
weight of 0 is 4.251770
weight of 1 is -5.106272
weight of 2 is -9.955556
weight of 3 is 6.000000
used!
weight of 0 is 4.785143
weight of 1 is -3.965452
weight of 2 is -9.955556
weight of 3 is 7.000000
used!
accept
accept
accept
accept
accept
accept
weight of 0 is 4.237677
weight of 1 is -3.965565
weight of 2 is -9.955556
weight of 3 is 6.000000
not used!
accept
accept
accept
accept
accept
accept
accept
accept
accept
accept
accept
accept
accept
accept
accept
accept
accept
accept
accept
accept
accept
accept
accept
accept
accept
accept
accept
accept
accept
accept
accept
accept
accept
accept
accept
accept
accept
accept
accept
accept
accept
accept
accept
accept
accept
accept
accept
accept
accept
accept
accept
accept
accept
accept
accept
accept
accept
accept
weight of 0 is 3.690206
weight of 1 is -3.965621
weight of 2 is -9.955556
weight of 3 is 5.000000
not used!
accept
accept
weight of 0 is 3.142735
weight of 1 is -3.965659
weight of 2 is -9.955556
weight of 3 is 4.000000
not used!
accept
accept
weight of 0 is 2.650094
weight of 1 is -8.446031
weight of 2 is -9.955556
weight of 3 is 3.000000
not used!
accept
accept
accept
accept
deny
deny
deny
deny
weight of 0 is 3.197487
weight of 1 is -7.305657
weight of 2 is -9.422222
weight of 3 is 4.000000
used!
weight of 0 is 3.744880
weight of 1 is -6.165283
weight of 2 is -8.888889
weight of 3 is 5.000000
used!
weight of 0 is 3.252238
weight of 1 is -6.165790
weight of 2 is -8.888889
weight of 3 is 4.000000
not used!
accept
accept
deny
deny
accept
accept
accept
accept
weight of 0 is 3.785622
weight of 1 is -5.025423
weight of 2 is -8.711111
weight of 3 is 5.000000
used!
weight of 0 is 4.319005
weight of 1 is -3.885057
weight of 2 is -8.533333
weight of 3 is 6.000000
used!
accept
accept
accept
accept
accept
accept
accept
accept
accept
accept
accept
accept
accept
accept
accept
accept
accept
accept
accept
accept
weight of 0 is 3.826364
weight of 1 is -3.885996
weight of 2 is -8.533333
weight of 3 is 5.000000
not used!
accept
accept
accept
accept
weight of 0 is 3.333723
weight of 1 is -3.886315
weight of 2 is -8.533333
weight of 3 is 4.000000
not used!
accept
accept
accept
accept
accept
accept
accept
accept
weight of 0 is 2.841082
weight of 1 is -3.886560
weight of 2 is -8.533333
weight of 3 is 3.000000
not used!
accept
accept
accept
accept
accept
accept
accept
accept
accept
accept
accept
accept
weight of 0 is 2.307724
weight of 1 is -5.028197
weight of 2 is -8.533333
weight of 3 is 2.000000
not used!
weight of 0 is 1.774367
weight of 1 is -5.028218
weight of 2 is -8.711111
weight of 3 is 1.000000
not used!
deny
deny
deny
deny
accept
accept
weight of 0 is 2.307757
weight of 1 is -3.888189
weight of 2 is -8.533333
weight of 3 is 2.000000
used!
weight of 0 is 2.841148
weight of 1 is -2.748161
weight of 2 is -8.355556
weight of 3 is 3.000000
used!
weight of 0 is 2.307789
weight of 1 is -2.748217
weight of 2 is -8.711111
weight of 3 is 2.000000
not used!
accept
accept
weight of 0 is 2.841179
weight of 1 is -2.748196
weight of 2 is -8.355556
weight of 3 is 3.000000
used!
weight of 0 is 3.374570
weight of 1 is -2.748175
weight of 2 is -8.000000
weight of 3 is 4.000000
used!
accept
accept
weight of 0 is 2.841211
weight of 1 is -2.748189
weight of 2 is -8.000000
weight of 3 is 3.000000
not used!
weight of 0 is 2.307852
weight of 1 is -2.748210
weight of 2 is -8.177778
weight of 3 is 2.000000
not used!
deny
deny
accept
accept
accept
accept
weight of 0 is 2.841244
weight of 1 is -1.608238
weight of 2 is -8.000000
weight of 3 is 3.000000
used!
weight of 0 is 3.374636
weight of 1 is -0.468266
weight of 2 is -7.822222
weight of 3 is 4.000000
used!
accept
accept
accept
accept
weight of 0 is 2.841276
weight of 1 is -0.468280
weight of 2 is -7.822222
weight of 3 is 3.000000
not used!
accept
accept
accept
accept
accept
accept
accept
accept
accept
accept
accept
accept
accept
accept
accept
accept
weight of 0 is 2.307912
weight of 1 is -0.468301
weight of 2 is -8.000000
weight of 3 is 2.000000
not used!
accept
accept
accept
accept
accept
accept
accept
accept
accept
accept
weight of 0 is 1.774548
weight of 1 is -0.468357
weight of 2 is -8.355556
weight of 3 is 1.000000
not used!
accept
accept
weight of 0 is 1.241183
weight of 1 is -0.468371
weight of 2 is -8.355556
weight of 3 is 0.000000
not used!
deny
deny
accept
accept
weight of 0 is 0.707819
weight of 1 is -0.468392
weight of 2 is -8.533333
weight of 3 is -1.000000
not used!
deny
deny
weight of 0 is 1.241215
weight of 1 is -0.468371
weight of 2 is -8.177778
weight of 3 is 0.000000
used!
weight of 0 is 1.774613
weight of 1 is -0.468350
weight of 2 is -7.822222
weight of 3 is 1.000000
used!
deny
deny
accept
accept
weight of 0 is 2.308010
weight of 1 is -0.468329
weight of 2 is -7.644444
weight of 3 is 2.000000
used!
weight of 0 is 2.841407
weight of 1 is -0.468308
weight of 2 is -7.466667
weight of 3 is 3.000000
used!
accept
accept
accept
accept
weight of 0 is 3.374805
weight of 1 is -0.468287
weight of 2 is -7.111111
weight of 3 is 4.000000
used!
weight of 0 is 3.908203
weight of 1 is -0.468266
weight of 2 is -6.755556
weight of 3 is 5.000000
used!
weight of 0 is 3.374837
weight of 1 is -0.468322
weight of 2 is -7.111111
weight of 3 is 4.000000
not used!
weight of 0 is 2.841471
weight of 1 is -0.468336
weight of 2 is -7.111111
weight of 3 is 3.000000
not used!
weight of 0 is 2.308105
weight of 1 is -0.468357
weight of 2 is -7.288889
weight of 3 is 2.000000
not used!
accept
accept
accept
accept
weight of 0 is 1.774738
weight of 1 is -0.468371
weight of 2 is -7.288889
weight of 3 is 1.000000
not used!
accept
accept
weight of 0 is 1.241370
weight of 1 is -0.468392
weight of 2 is -7.466667
weight of 3 is 0.000000
not used!
deny
deny
weight of 0 is 0.708002
weight of 1 is -0.468414
weight of 2 is -7.822222
weight of 3 is -1.000000
not used!
deny
deny
deny
deny
weight of 0 is 1.241402
weight of 1 is -0.468392
weight of 2 is -7.644444
weight of 3 is 0.000000
used!
weight of 0 is 1.774801
weight of 1 is -0.468371
weight of 2 is -7.466667
weight of 3 is 1.000000
used!
weight of 0 is 1.241433
weight of 1 is -0.468392
weight of 2 is -7.822222
weight of 3 is 0.000000
not used!
accept
accept
weight of 0 is 0.708064
weight of 1 is -0.468407
weight of 2 is -7.822222
weight of 3 is -1.000000
not used!
deny
deny
weight of 0 is 1.241464
weight of 1 is -0.468385
weight of 2 is -7.466667
weight of 3 is 0.000000
used!
weight of 0 is 1.774864
weight of 1 is -0.468364
weight of 2 is -7.111111
weight of 3 is 1.000000
used!
deny
deny
weight of 0 is 2.308263
weight of 1 is -0.468350
weight of 2 is -7.111111
weight of 3 is 2.000000
used!
weight of 0 is 2.841663
weight of 1 is -0.468336
weight of 2 is -7.111111
weight of 3 is 3.000000
used!
accept
accept
weight of 0 is 3.375064
weight of 1 is 0.671242
weight of 2 is -6.933333
weight of 3 is 4.000000
used!
weight of 0 is 3.908464
weight of 1 is 1.810819
weight of 2 is -6.755556
weight of 3 is 5.000000
used!
weight of 0 is 3.375094
weight of 1 is 1.810763
weight of 2 is -6.933333
weight of 3 is 4.000000
not used!
accept
accept
weight of 0 is 3.908495
weight of 1 is 1.810784
weight of 2 is -6.577778
weight of 3 is 5.000000
used!
weight of 0 is 4.441895
weight of 1 is 1.810805
weight of 2 is -6.222222
weight of 3 is 6.000000
used!
accept
accept
weight of 0 is 3.908525
weight of 1 is 1.810784
weight of 2 is -6.577778
weight of 3 is 5.000000
not used!
weight of 0 is 3.375155
weight of 1 is 1.810770
weight of 2 is -6.577778
weight of 3 is 4.000000
not used!
weight of 0 is 2.841785
weight of 1 is 1.810749
weight of 2 is -6.755556
weight of 3 is 3.000000
not used!
accept
accept
weight of 0 is 2.308414
weight of 1 is 1.810714
weight of 2 is -6.933333
weight of 3 is 2.000000
not used!
accept
accept
accept
accept
accept
accept
accept
accept
weight of 0 is 1.775042
weight of 1 is 1.810678
weight of 2 is -7.111111
weight of 3 is 1.000000
not used!
accept
accept
weight of 0 is 1.241670
weight of 1 is 1.810657
weight of 2 is -7.466667
weight of 3 is 0.000000
not used!
deny
deny
weight of 0 is 0.708298
weight of 1 is 1.810643
weight of 2 is -7.466667
weight of 3 is -1.000000
not used!
deny
deny
weight of 0 is 0.174926
weight of 1 is 1.810622
weight of 2 is -7.644444
weight of 3 is -2.000000
not used!
deny
deny
weight of 0 is 0.708329
weight of 1 is 1.810643
weight of 2 is -7.466667
weight of 3 is -1.000000
used!
weight of 0 is 1.241732
weight of 1 is 1.810664
weight of 2 is -7.288889
weight of 3 is 0.000000
used!
weight of 0 is 0.708359
weight of 1 is 1.810643
weight of 2 is -7.644444
weight of 3 is -1.000000
not used!
deny
deny
weight of 0 is 1.241762
weight of 1 is 1.810664
weight of 2 is -7.288889
weight of 3 is 0.000000
used!
weight of 0 is 1.775166
weight of 1 is 1.810686
weight of 2 is -6.933333
weight of 3 is 1.000000
used!
deny
deny
weight of 0 is 2.308569
weight of 1 is 1.810700
weight of 2 is -6.933333
weight of 3 is 2.000000
used!
weight of 0 is 2.841972
weight of 1 is 1.810714
weight of 2 is -6.933333
weight of 3 is 3.000000
used!
accept
accept
weight of 0 is 3.375376
weight of 1 is 1.810735
weight of 2 is -6.755556
weight of 3 is 4.000000
used!
weight of 0 is 3.908780
weight of 1 is 1.810756
weight of 2 is -6.577778
weight of 3 is 5.000000
used!
accept
accept
weight of 0 is 3.375407
weight of 1 is 1.810735
weight of 2 is -6.755556
weight of 3 is 4.000000
not used!
weight of 0 is 2.842033
weight of 1 is 1.810714
weight of 2 is -7.111111
weight of 3 is 3.000000
not used!
accept
accept
weight of 0 is 2.308660
weight of 1 is 1.810700
weight of 2 is -7.111111
weight of 3 is 2.000000
not used!
accept
accept
weight of 0 is 1.775286
weight of 1 is 1.810678
weight of 2 is -7.288889
weight of 3 is 1.000000
not used!
deny
deny
weight of 0 is 1.241912
weight of 1 is 1.810657
weight of 2 is -7.644444
weight of 3 is 0.000000
not used!
accept
accept
deny
deny
weight of 0 is 1.775317
weight of 1 is 1.810678
weight of 2 is -7.288889
weight of 3 is 1.000000
used!
weight of 0 is 2.308723
weight of 1 is 1.810700
weight of 2 is -6.933333
weight of 3 is 2.000000
used!
accept
accept
accept
accept
accept
accept
weight of 0 is 2.842128
weight of 1 is 1.810721
weight of 2 is -6.755556
weight of 3 is 3.000000
used!
weight of 0 is 3.375534
weight of 1 is 1.810742
weight of 2 is -6.577778
weight of 3 is 4.000000
used!
accept
accept
accept
accept
weight of 0 is 2.842159
weight of 1 is 0.670035
weight of 2 is -6.577778
weight of 3 is 3.000000
not used!
deny
deny
weight of 0 is 2.308784
weight of 1 is 0.670013
weight of 2 is -6.755556
weight of 3 is 2.000000
not used!
accept
accept
weight of 0 is 1.775409
weight of 1 is 0.669992
weight of 2 is -7.111111
weight of 3 is 1.000000
not used!
accept
accept
deny
deny
accept
accept
accept
accept
weight of 0 is 2.308816
weight of 1 is 1.809229
weight of 2 is -6.755556
weight of 3 is 2.000000
used!
weight of 0 is 2.842225
weight of 1 is 2.948467
weight of 2 is -6.400000
weight of 3 is 3.000000
used!
accept
accept
accept
accept
weight of 0 is 2.308848
weight of 1 is 1.807816
weight of 2 is -6.400000
weight of 3 is 2.000000
not used!
accept
accept
accept
accept
weight of 0 is 1.775472
weight of 1 is 1.807795
weight of 2 is -6.577778
weight of 3 is 1.000000
not used!
accept
accept
weight of 0 is 1.242095
weight of 1 is 1.807773
weight of 2 is -6.933333
weight of 3 is 0.000000
not used!
accept
accept
weight of 0 is 0.708718
weight of 1 is 1.807759
weight of 2 is -6.933333
weight of 3 is -1.000000
not used!
weight of 0 is 0.175341
weight of 1 is 1.807738
weight of 2 is -7.111111
weight of 3 is -2.000000
not used!
deny
deny
deny
deny
weight of 0 is -0.358037
weight of 1 is 1.807717
weight of 2 is -7.466667
weight of 3 is -3.000000
not used!
deny
deny
deny
deny
deny
deny
weight of 0 is 0.175374
weight of 1 is 2.946903
weight of 2 is -7.288889
weight of 3 is -2.000000
used!
weight of 0 is 0.708785
weight of 1 is 4.086088
weight of 2 is -7.111111
weight of 3 is -1.000000
used!
accept
accept
weight of 0 is 1.256191
weight of 1 is 5.225337
weight of 2 is -6.400000
weight of 3 is 0.000000
used!
weight of 0 is 1.803598
weight of 1 is 6.364586
weight of 2 is -5.688889
weight of 3 is 1.000000
used!
weight of 0 is 1.270220
weight of 1 is 6.364530
weight of 2 is -5.688889
weight of 3 is 0.000000
not used!
accept
accept
weight of 0 is 1.803630
weight of 1 is 7.503758
weight of 2 is -5.333333
weight of 3 is 1.000000
used!
weight of 0 is 2.337041
weight of 1 is 8.642985
weight of 2 is -4.977778
weight of 3 is 2.000000
used!
weight of 0 is 1.803663
weight of 1 is 8.642964
weight of 2 is -5.155556
weight of 3 is 1.000000
not used!
weight of 0 is 1.270284
weight of 1 is 8.642943
weight of 2 is -5.511111
weight of 3 is 0.000000
not used!
weight of 0 is 0.736905
weight of 1 is 8.642929
weight of 2 is -5.511111
weight of 3 is -1.000000
not used!
accept
accept
weight of 0 is 0.189514
weight of 1 is 7.502412
weight of 2 is -5.511111
weight of 3 is -2.000000
not used!
accept
accept
deny
deny
deny
deny
weight of 0 is -0.343866
weight of 1 is 6.361932
weight of 2 is -5.688889
weight of 3 is -3.000000
not used!
deny
deny
accept
accept
weight of 0 is 0.189546
weight of 1 is 6.361954
weight of 2 is -5.333333
weight of 3 is -2.000000
used!
weight of 0 is 0.722958
weight of 1 is 6.361975
weight of 2 is -4.977778
weight of 3 is -1.000000
used!
weight of 0 is 0.189578
weight of 1 is 6.361954
weight of 2 is -5.333333
weight of 3 is -2.000000
not used!
accept
accept
weight of 0 is -0.343802
weight of 1 is 6.361939
weight of 2 is -5.333333
weight of 3 is -3.000000
not used!
accept
accept
weight of 0 is 0.189610
weight of 1 is 6.361954
weight of 2 is -5.333333
weight of 3 is -2.000000
used!
weight of 0 is 0.723022
weight of 1 is 6.361968
weight of 2 is -5.333333
weight of 3 is -1.000000
used!
weight of 0 is 0.189641
weight of 1 is 6.361946
weight of 2 is -5.511111
weight of 3 is -2.000000
not used!
deny
deny
weight of 0 is -0.343740
weight of 1 is 6.361911
weight of 2 is -5.511111
weight of 3 is -3.000000
not used!
deny
deny
deny
deny
weight of 0 is 0.189674
weight of 1 is 6.361968
weight of 2 is -5.155556
weight of 3 is -2.000000
used!
weight of 0 is 0.723087
weight of 1 is 6.362024
weight of 2 is -4.800000
weight of 3 is -1.000000
used!
accept
accept
accept
accept
weight of 0 is 1.256501
weight of 1 is 6.362038
weight of 2 is -4.800000
weight of 3 is 0.000000
used!
weight of 0 is 1.789915
weight of 1 is 6.362052
weight of 2 is -4.800000
weight of 3 is 1.000000
used!
accept
accept
weight of 0 is 2.323329
weight of 1 is 6.362073
weight of 2 is -4.622222
weight of 3 is 2.000000
used!
weight of 0 is 2.856743
weight of 1 is 6.362094
weight of 2 is -4.444444
weight of 3 is 3.000000
used!
accept
accept
accept
accept
accept
accept
weight of 0 is 2.323361
weight of 1 is 6.362038
weight of 2 is -4.622222
weight of 3 is 2.000000
not used!
accept
accept
accept
accept
accept
accept
weight of 0 is 1.789979
weight of 1 is 6.362017
weight of 2 is -4.977778
weight of 3 is 1.000000
not used!
accept
accept
weight of 0 is 1.256596
weight of 1 is 6.362003
weight of 2 is -4.977778
weight of 3 is 0.000000
not used!
accept
accept
accept
accept
deny
deny
accept
accept
accept
accept
accept
accept
weight of 0 is 1.790013
weight of 1 is 6.362024
weight of 2 is -4.622222
weight of 3 is 1.000000
used!
weight of 0 is 2.323430
weight of 1 is 6.362045
weight of 2 is -4.266667
weight of 3 is 2.000000
used!
accept
accept
accept
accept
weight of 0 is 1.790047
weight of 1 is 6.362024
weight of 2 is -4.622222
weight of 3 is 1.000000
not used!
accept
accept
weight of 0 is 1.256663
weight of 1 is 6.362010
weight of 2 is -4.622222
weight of 3 is 0.000000
not used!
deny
deny
weight of 0 is 0.723278
weight of 1 is 6.361989
weight of 2 is -4.800000
weight of 3 is -1.000000
not used!
accept
accept
accept
accept
weight of 0 is 0.189894
weight of 1 is 6.361954
weight of 2 is -4.800000
weight of 3 is -2.000000
not used!
deny
deny
deny
deny
deny
deny
weight of 0 is 0.723313
weight of 1 is 6.362010
weight of 2 is -4.800000
weight of 3 is -1.000000
used!
weight of 0 is 1.256732
weight of 1 is 6.362066
weight of 2 is -4.800000
weight of 3 is 0.000000
used!
accept
accept
weight of 0 is 1.790152
weight of 1 is 6.362087
weight of 2 is -4.622222
weight of 3 is 1.000000
used!
weight of 0 is 2.323572
weight of 1 is 6.362109
weight of 2 is -4.444444
weight of 3 is 2.000000
used!
accept
accept
weight of 0 is 2.856991
weight of 1 is 6.362130
weight of 2 is -4.088889
weight of 3 is 3.000000
used!
weight of 0 is 3.390411
weight of 1 is 6.362151
weight of 2 is -3.733333
weight of 3 is 4.000000
used!
weight of 0 is 2.857026
weight of 1 is 6.362094
weight of 2 is -3.911111
weight of 3 is 3.000000
not used!
accept
accept
weight of 0 is 2.323640
weight of 1 is 6.362073
weight of 2 is -4.266667
weight of 3 is 2.000000
not used!
weight of 0 is 1.790254
weight of 1 is 6.362059
weight of 2 is -4.266667
weight of 3 is 1.000000
not used!
weight of 0 is 1.256868
weight of 1 is 6.362038
weight of 2 is -4.444444
weight of 3 is 0.000000
not used!
accept
accept
deny
deny
accept
accept
accept
accept
weight of 0 is 1.790289
weight of 1 is 6.362059
weight of 2 is -4.088889
weight of 3 is 1.000000
used!
weight of 0 is 2.323710
weight of 1 is 6.362080
weight of 2 is -3.733333
weight of 3 is 2.000000
used!
accept
accept
accept
accept
weight of 0 is 1.790323
weight of 1 is 6.362024
weight of 2 is -4.088889
weight of 3 is 1.000000
not used!
weight of 0 is 1.256936
weight of 1 is 6.362010
weight of 2 is -4.088889
weight of 3 is 0.000000
not used!
accept
accept
weight of 0 is 0.723548
weight of 1 is 6.361989
weight of 2 is -4.266667
weight of 3 is -1.000000
not used!
deny
deny
weight of 0 is 0.190160
weight of 1 is 6.361968
weight of 2 is -4.622222
weight of 3 is -2.000000
not used!
deny
deny
accept
accept
accept
accept
weight of 0 is 0.723583
weight of 1 is 6.361989
weight of 2 is -4.444444
weight of 3 is -1.000000
used!
weight of 0 is 1.257006
weight of 1 is 6.362010
weight of 2 is -4.266667
weight of 3 is 0.000000
used!
weight of 0 is 0.723618
weight of 1 is 5.221904
weight of 2 is -4.266667
weight of 3 is -1.000000
not used!
weight of 0 is 0.190229
weight of 1 is 5.221883
weight of 2 is -4.444444
weight of 3 is -2.000000
not used!
weight of 0 is -0.343161
weight of 1 is 5.221861
weight of 2 is -4.800000
weight of 3 is -3.000000
not used!
deny
deny
weight of 0 is -0.876550
weight of 1 is 5.221847
weight of 2 is -4.800000
weight of 3 is -4.000000
not used!
accept
accept
accept
accept
deny
deny
deny
deny
weight of 0 is -1.409941
weight of 1 is 5.221833
weight of 2 is -4.800000
weight of 3 is -5.000000
not used!
deny
deny
accept
accept
weight of 0 is -0.876516
weight of 1 is 5.221890
weight of 2 is -4.622222
weight of 3 is -4.000000
used!
weight of 0 is -0.343091
weight of 1 is 5.221946
weight of 2 is -4.444444
weight of 3 is -3.000000
used!
deny
deny
deny
deny
weight of 0 is 0.204324
weight of 1 is 6.360685
weight of 2 is -3.733333
weight of 3 is -2.000000
used!
weight of 0 is 0.751740
weight of 1 is 7.499425
weight of 2 is -3.022222
weight of 3 is -1.000000
used!
deny
deny
weight of 0 is 1.299155
weight of 1 is 8.638169
weight of 2 is -2.311111
weight of 3 is 0.000000
used!
weight of 0 is 1.846571
weight of 1 is 9.776913
weight of 2 is -1.600000
weight of 3 is 1.000000
used!
accept
accept
weight of 0 is 1.313179
weight of 1 is 9.776892
weight of 2 is -1.955556
weight of 3 is 0.000000
not used!
accept
accept
weight of 0 is 1.860594
weight of 1 is 9.776903
weight of 2 is -1.777778
weight of 3 is 1.000000
used!
weight of 0 is 2.408010
weight of 1 is 9.776915
weight of 2 is -1.600000
weight of 3 is 2.000000
used!
weight of 0 is 1.874618
weight of 1 is 9.776901
weight of 2 is -1.600000
weight of 3 is 1.000000
not used!
accept
accept
accept
accept
accept
accept
accept
accept
weight of 0 is 1.341225
weight of 1 is 8.636983
weight of 2 is -1.777778
weight of 3 is 0.000000
not used!
accept
accept
weight of 0 is 0.807831
weight of 1 is 8.636962
weight of 2 is -2.133333
weight of 3 is -1.000000
not used!
weight of 0 is 0.274438
weight of 1 is 8.636948
weight of 2 is -2.133333
weight of 3 is -2.000000
not used!
deny
deny
accept
accept
accept
accept
weight of 0 is -0.258957
weight of 1 is 8.636891
weight of 2 is -2.311111
weight of 3 is -3.000000
not used!
deny
deny
weight of 0 is -0.792352
weight of 1 is 8.636870
weight of 2 is -2.666667
weight of 3 is -4.000000
not used!
accept
accept
weight of 0 is -1.325747
weight of 1 is 8.636856
weight of 2 is -2.666667
weight of 3 is -5.000000
not used!
accept
accept
weight of 0 is -1.859142
weight of 1 is 8.636835
weight of 2 is -2.844444
weight of 3 is -6.000000
not used!
weight of 0 is -2.392537
weight of 1 is 8.636814
weight of 2 is -3.200000
weight of 3 is -7.000000
not used!
weight of 0 is -2.925933
weight of 1 is 8.636800
weight of 2 is -3.200000
weight of 3 is -8.000000
not used!
deny
deny
deny
deny
deny
deny
weight of 0 is -2.392503
weight of 1 is 8.636856
weight of 2 is -2.844444
weight of 3 is -7.000000
used!
weight of 0 is -1.859073
weight of 1 is 8.636912
weight of 2 is -2.488889
weight of 3 is -6.000000
used!
accept
accept
accept
accept
weight of 0 is -1.325642
weight of 1 is 8.636926
weight of 2 is -2.488889
weight of 3 is -5.000000
used!
weight of 0 is -0.792212
weight of 1 is 8.636941
weight of 2 is -2.488889
weight of 3 is -4.000000
used!
weight of 0 is -1.325608
weight of 1 is 8.636884
weight of 2 is -2.666667
weight of 3 is -5.000000
not used!
deny
deny
weight of 0 is -0.792178
weight of 1 is 8.636905
weight of 2 is -2.488889
weight of 3 is -4.000000
used!
weight of 0 is -0.258747
weight of 1 is 8.636926
weight of 2 is -2.311111
weight of 3 is -3.000000
used!
weight of 0 is -0.792144
weight of 1 is 8.636912
weight of 2 is -2.311111
weight of 3 is -4.000000
not used!
accept
accept
accept
accept
weight of 0 is -0.258713
weight of 1 is 8.636926
weight of 2 is -2.311111
weight of 3 is -3.000000
used!
weight of 0 is 0.274718
weight of 1 is 8.636941
weight of 2 is -2.311111
weight of 3 is -2.000000
used!
deny
deny
deny
deny
weight of 0 is -0.258680
weight of 1 is 8.636926
weight of 2 is -2.311111
weight of 3 is -3.000000
not used!
deny
deny
weight of 0 is 0.274752
weight of 1 is 8.636941
weight of 2 is -2.311111
weight of 3 is -2.000000
used!
weight of 0 is 0.808184
weight of 1 is 8.636955
weight of 2 is -2.311111
weight of 3 is -1.000000
used!
deny
deny
weight of 0 is 1.341616
weight of 1 is 8.636976
weight of 2 is -2.133333
weight of 3 is 0.000000
used!
weight of 0 is 1.875048
weight of 1 is 8.636997
weight of 2 is -1.955556
weight of 3 is 1.000000
used!
accept
accept
weight of 0 is 2.408480
weight of 1 is 8.637018
weight of 2 is -1.600000
weight of 3 is 2.000000
used!
[...]
weight of 3 is 9.000000
not used!
accept
accept
accept
accept
accept
accept
accept
accept
accept
accept
accept
accept
accept
accept
weight of 0 is 6.295340
weight of 1 is 6.073410
weight of 2 is -4.888889
weight of 3 is 8.000000
not used!
accept
accept
accept
accept
accept
accept
accept
accept
accept
accept
accept
accept
accept
accept
weight of 0 is 6.280213
weight of 1 is 6.073297
weight of 2 is -4.888889
weight of 3 is 7.000000
not used!
info: Increasing stack size by one page.
weight of 0 is 6.265345
weight of 1 is 6.052330
weight of 2 is -4.888889
weight of 3 is 6.000000
not used!
accept
accept
accept
accept
accept
accept
accept
accept
accept
accept
accept
accept
weight of 0 is 6.224451
weight of 1 is 6.052093
weight of 2 is -4.888889
weight of 3 is 5.000000
not used!
accept
accept
accept
accept
weight of 0 is 6.183586
weight of 1 is 6.049707
weight of 2 is -4.888889
weight of 3 is 4.000000
not used!
deny
deny
accept
accept
weight of 0 is 6.168460
weight of 1 is 1.493301
weight of 2 is -4.888889
weight of 3 is 3.000000
not used!
weight of 0 is 6.127569
weight of 1 is -3.063084
weight of 2 is -4.888889
weight of 3 is 2.000000
not used!
weight of 0 is 6.086678
weight of 1 is -3.063117
weight of 2 is -5.244444
weight of 3 is 1.000000
not used!
deny
deny
weight of 0 is 6.045789
weight of 1 is -3.063251
weight of 2 is -5.422222
weight of 3 is 0.000000
not used!
weight of 0 is 6.004899
weight of 1 is -3.063268
weight of 2 is -6.666667
weight of 3 is -1.000000
not used!
weight of 0 is 5.964011
weight of 1 is -3.063411
weight of 2 is -7.022222
weight of 3 is -2.000000
not used!
weight of 0 is 5.923124
weight of 1 is -3.063610
weight of 2 is -8.266667
weight of 3 is -3.000000
not used!
deny
deny
deny
deny
deny
deny
deny
deny
deny
deny
deny
deny
weight of 0 is 5.907998
weight of 1 is -3.064136
weight of 2 is -8.266667
weight of 3 is -4.000000
not used!
deny
deny
deny
deny
weight of 0 is 5.867106
weight of 1 is -7.619881
weight of 2 is -9.511111
weight of 3 is -5.000000
not used!
deny
deny
weight of 0 is 5.908007
weight of 1 is -7.619835
weight of 2 is -8.622222
weight of 3 is -4.000000
used!
weight of 0 is 5.948909
weight of 1 is -7.619789
weight of 2 is -7.733333
weight of 3 is -3.000000
used!
weight of 0 is 5.908023
weight of 1 is -7.620122
weight of 2 is -7.911111
weight of 3 is -4.000000
not used!
deny
deny
deny
deny
deny
deny
weight of 0 is 5.948922
weight of 1 is -7.619930
weight of 2 is -7.377778
weight of 3 is -3.000000
used!
weight of 0 is 5.989822
weight of 1 is -7.619737
weight of 2 is -6.844444
weight of 3 is -2.000000
used!
deny
deny
weight of 0 is 6.030719
weight of 1 is -7.619565
weight of 2 is -5.600000
weight of 3 is -1.000000
used!
weight of 0 is 6.071616
weight of 1 is -7.619392
weight of 2 is -4.355556
weight of 3 is 0.000000
used!
weight of 0 is 6.030725
weight of 1 is -7.619855
weight of 2 is -4.377778
weight of 3 is -1.000000
not used!
deny
deny
deny
deny
weight of 0 is 5.989842
weight of 1 is -7.619937
weight of 2 is -4.733333
weight of 3 is -2.000000
not used!
deny
deny
weight of 0 is 6.030739
weight of 1 is -7.619850
weight of 2 is -3.666667
weight of 3 is -1.000000
used!
weight of 0 is 6.071636
weight of 1 is -7.619763
weight of 2 is -2.600000
weight of 3 is 0.000000
used!
deny
deny
weight of 0 is 6.112532
weight of 1 is -7.619695
weight of 2 is -2.244444
weight of 3 is 1.000000
used!
weight of 0 is 6.153428
weight of 1 is -7.619627
weight of 2 is -1.888889
weight of 3 is 2.000000
used!
weight of 0 is 6.112548
weight of 1 is -7.619834
weight of 2 is -2.244444
weight of 3 is 1.000000
not used!
weight of 0 is 6.071668
weight of 1 is -7.620033
weight of 2 is -3.488889
weight of 3 is 0.000000
not used!
deny
deny
accept
accept
weight of 0 is 6.030790
weight of 1 is -7.620132
weight of 2 is -4.377778
weight of 3 is -1.000000
not used!
deny
deny
deny
deny
deny
deny
weight of 0 is 6.045916
weight of 1 is -7.620001
weight of 2 is -4.377778
weight of 3 is 0.000000
used!
weight of 0 is 6.061042
weight of 1 is -7.619869
weight of 2 is -4.377778
weight of 3 is 1.000000
used!
deny
deny
weight of 0 is 6.101938
weight of 1 is -7.619853
weight of 2 is -3.133333
weight of 3 is 2.000000
used!
weight of 0 is 6.142835
weight of 1 is -7.619836
weight of 2 is -1.888889
weight of 3 is 3.000000
used!
deny
deny
deny
deny
weight of 0 is 6.101963
weight of 1 is -12.175994
weight of 2 is -3.133333
weight of 3 is 2.000000
not used!
deny
deny
accept
accept
accept
accept
weight of 0 is 6.117089
weight of 1 is -7.619214
weight of 2 is -3.133333
weight of 3 is 3.000000
used!
weight of 0 is 6.132215
weight of 1 is -3.062434
weight of 2 is -3.133333
weight of 3 is 4.000000
used!
accept
accept
accept
accept
accept
accept
accept
accept
accept
accept
weight of 0 is 6.091331
weight of 1 is -3.062622
weight of 2 is -4.377778
weight of 3 is 3.000000
not used!
accept
accept
weight of 0 is 6.050422
weight of 1 is -3.064692
weight of 2 is -4.466667
weight of 3 is 2.000000
not used!
accept
accept
weight of 0 is 6.009539
weight of 1 is -3.066634
weight of 2 is -4.488889
weight of 3 is 1.000000
not used!
weight of 0 is 5.968634
weight of 1 is -3.066716
weight of 2 is -4.844444
weight of 3 is 0.000000
not used!
accept
accept
weight of 0 is 5.927732
weight of 1 is -3.066923
weight of 2 is -5.200000
weight of 3 is -1.000000
not used!
weight of 0 is 5.886832
weight of 1 is -3.067021
weight of 2 is -6.088889
weight of 3 is -2.000000
not used!
deny
deny
deny
deny
deny
deny
deny
deny
deny
deny
deny
deny
deny
deny
weight of 0 is 5.901958
weight of 1 is -3.063640
weight of 2 is -6.088889
weight of 3 is -1.000000
used!
weight of 0 is 5.917084
weight of 1 is -3.060258
weight of 2 is -6.088889
weight of 3 is 0.000000
used!
weight of 0 is 5.901958
weight of 1 is -3.060277
weight of 2 is -6.088889
weight of 3 is -1.000000
not used!
weight of 0 is 5.886832
weight of 1 is -3.060765
weight of 2 is -6.088889
weight of 3 is -2.000000
not used!
weight of 0 is 5.871705
weight of 1 is -3.060822
weight of 2 is -6.088889
weight of 3 is -3.000000
not used!
weight of 0 is 5.856579
weight of 1 is -3.060878
weight of 2 is -6.088889
weight of 3 is -4.000000
not used!
weight of 0 is 5.841453
weight of 1 is -3.062174
weight of 2 is -6.088889
weight of 3 is -5.000000
not used!
deny
deny
deny
deny
weight of 0 is 5.856579
weight of 1 is -3.062156
weight of 2 is -6.088889
weight of 3 is -4.000000
used!
weight of 0 is 5.871705
weight of 1 is -3.062137
weight of 2 is -6.088889
weight of 3 is -3.000000
used!
deny
deny
weight of 0 is 5.886831
weight of 1 is -3.062118
weight of 2 is -6.088889
weight of 3 is -2.000000
used!
weight of 0 is 5.901957
weight of 1 is -3.062099
weight of 2 is -6.088889
weight of 3 is -1.000000
used!
deny
deny
weight of 0 is 5.917083
weight of 1 is -3.058022
weight of 2 is -6.088889
weight of 3 is 0.000000
used!
weight of 0 is 5.932209
weight of 1 is -3.053946
weight of 2 is -6.088889
weight of 3 is 1.000000
used!
accept
accept
weight of 0 is 5.947335
weight of 1 is -3.053927
weight of 2 is -6.088889
weight of 3 is 2.000000
used!
weight of 0 is 5.962461
weight of 1 is -3.053908
weight of 2 is -6.088889
weight of 3 is 3.000000
used!
accept
accept
weight of 0 is 5.977587
weight of 1 is -3.053889
weight of 2 is -6.088889
weight of 3 is 4.000000
used!
weight of 0 is 5.992713
weight of 1 is -3.053870
weight of 2 is -6.088889
weight of 3 is 5.000000
used!
accept
accept
accept
accept
accept
accept
weight of 0 is 5.977587
weight of 1 is -3.053927
weight of 2 is -6.088889
weight of 3 is 4.000000
not used!
info: Increasing stack size by one page.
deny
deny
accept
accept
deny
deny
accept
accept
accept
accept
deny
deny
accept
accept
weight of 0 is 6.018511
weight of 1 is -3.053882
weight of 2 is -5.200000
weight of 3 is 5.000000
used!
weight of 0 is 6.059435
weight of 1 is -3.053838
weight of 2 is -4.311111
weight of 3 is 6.000000
used!
accept
accept
accept
accept
accept
accept
weight of 0 is 6.100354
weight of 1 is -3.051811
weight of 2 is -3.066667
weight of 3 is 7.000000
used!
weight of 0 is 6.141273
weight of 1 is -3.049785
weight of 2 is -1.822222
weight of 3 is 8.000000
used!
accept
accept
accept
accept
accept
accept
accept
accept
accept
accept
accept
accept
accept
accept
accept
accept
accept
accept
accept
accept
accept
accept
accept
accept
accept
accept
accept
accept
weight of 0 is 6.100350
weight of 1 is -3.051854
weight of 2 is -1.822222
weight of 3 is 7.000000
not used!
weight of 0 is 6.059453
weight of 1 is -3.053796
weight of 2 is -1.844444
weight of 3 is 6.000000
not used!
weight of 0 is 6.018532
weight of 1 is -3.053932
weight of 2 is -2.022222
weight of 3 is 5.000000
not used!
weight of 0 is 5.977613
weight of 1 is -3.053953
weight of 2 is -2.022222
weight of 3 is 4.000000
not used!
weight of 0 is 5.936693
weight of 1 is -3.053986
weight of 2 is -2.377778
weight of 3 is 3.000000
not used!
weight of 0 is 5.895775
weight of 1 is -3.054002
weight of 2 is -3.622222
weight of 3 is 2.000000
not used!
weight of 0 is 5.854858
weight of 1 is -3.054145
weight of 2 is -3.977778
weight of 3 is 1.000000
not used!
weight of 0 is 5.813944
weight of 1 is -3.054246
weight of 2 is -4.866667
weight of 3 is 0.000000
not used!
weight of 0 is 5.773023
weight of 1 is -3.054354
weight of 2 is -6.111111
weight of 3 is -1.000000
not used!
weight of 0 is 5.732108
weight of 1 is -3.054690
weight of 2 is -6.111111
weight of 3 is -2.000000
not used!
weight of 0 is 5.691189
weight of 1 is -3.055153
weight of 2 is -6.133333
weight of 3 is -3.000000
not used!
weight of 0 is 5.650277
weight of 1 is -3.055235
weight of 2 is -6.488889
weight of 3 is -4.000000
not used!
weight of 0 is 5.609368
weight of 1 is -3.055442
weight of 2 is -6.844444
weight of 3 is -5.000000
not used!
weight of 0 is 5.568459
weight of 1 is -3.055642
weight of 2 is -8.088889
weight of 3 is -6.000000
not used!
weight of 0 is 5.527552
weight of 1 is -3.055740
weight of 2 is -8.977778
weight of 3 is -7.000000
not used!
weight of 0 is 5.486652
weight of 1 is -3.055820
weight of 2 is -10.222222
weight of 3 is -8.000000
not used!
info: Increasing stack size by one page.
deny
deny
deny
deny
deny
deny
deny
deny
deny
deny
deny
deny
deny
deny
deny
deny
deny
deny
weight of 0 is 5.527590
weight of 1 is -3.055772
weight of 2 is -9.333333
weight of 3 is -7.000000
used!
weight of 0 is 5.568529
weight of 1 is -3.055724
weight of 2 is -8.444444
weight of 3 is -6.000000
used!
deny
deny
deny
deny
deny
deny
weight of 0 is 5.609464
weight of 1 is -3.055531
weight of 2 is -7.911111
weight of 3 is -5.000000
used!
weight of 0 is 5.650400
weight of 1 is -3.055339
weight of 2 is -7.377778
weight of 3 is -4.000000
used!
deny
deny
weight of 0 is 5.691333
weight of 1 is -3.055165
weight of 2 is -6.133333
weight of 3 is -3.000000
used!
weight of 0 is 5.732267
weight of 1 is -3.054991
weight of 2 is -4.888889
weight of 3 is -2.000000
used!
deny
deny
deny
deny
deny
deny
weight of 0 is 5.773200
weight of 1 is -3.054904
weight of 2 is -3.822222
weight of 3 is -1.000000
used!
weight of 0 is 5.814133
weight of 1 is -3.054817
weight of 2 is -2.755556
weight of 3 is 0.000000
used!
deny
deny
weight of 0 is 5.855065
weight of 1 is -3.054749
weight of 2 is -2.400000
weight of 3 is 1.000000
used!
weight of 0 is 5.895998
weight of 1 is -3.054681
weight of 2 is -2.044444
weight of 3 is 2.000000
used!
accept
accept
weight of 0 is 5.936930
weight of 1 is -3.054665
weight of 2 is -0.800000
weight of 3 is 3.000000
used!
weight of 0 is 5.977863
weight of 1 is -3.054648
weight of 2 is 0.444444
weight of 3 is 4.000000
used!
deny
deny
accept
accept
accept
accept
accept
accept
deny
deny
deny
deny
deny
deny
deny
deny
deny
deny
deny
deny
weight of 0 is 5.992989
weight of 1 is 1.504456
weight of 2 is 0.444444
weight of 3 is 5.000000
used!
weight of 0 is 6.008115
weight of 1 is 6.063561
weight of 2 is 0.444444
weight of 3 is 6.000000
used!
accept
accept
weight of 0 is 6.048972
weight of 1 is 10.620266
weight of 2 is 0.444444
weight of 3 is 7.000000
used!
weight of 0 is 6.089829
weight of 1 is 15.176970
weight of 2 is 0.444444
weight of 3 is 8.000000
used!
accept
accept
weight of 0 is 6.104955
weight of 1 is 19.733656
weight of 2 is 0.444444
weight of 3 is 9.000000
used!
weight of 0 is 6.120081
weight of 1 is 24.290342
weight of 2 is 0.444444
weight of 3 is 10.000000
used!
accept
accept
weight of 0 is 6.161018
weight of 1 is 24.292414
weight of 2 is 0.711111
weight of 3 is 11.000000
used!
weight of 0 is 6.201955
weight of 1 is 24.294487
weight of 2 is 0.977778
weight of 3 is 12.000000
used!
accept
accept
accept
accept
accept
accept
accept
accept
accept
accept
accept
accept
accept
accept
accept
accept
accept
accept
accept
accept
accept
accept
accept
accept
accept
accept
accept
accept
accept
accept
accept
accept
accept
accept
weight of 0 is 6.161033
weight of 1 is 24.294407
weight of 2 is -0.266667
weight of 3 is 11.000000
not used!
accept
accept
weight of 0 is 6.146137
weight of 1 is 24.275732
weight of 2 is -0.266667
weight of 3 is 10.000000
not used!
accept
accept
accept
accept
accept
accept
weight of 0 is 6.105254
weight of 1 is 19.716773
weight of 2 is -0.266667
weight of 3 is 9.000000
not used!
weight of 0 is 6.064376
weight of 1 is 15.158228
weight of 2 is -0.266667
weight of 3 is 8.000000
not used!
accept
accept
accept
accept
weight of 0 is 6.049250
weight of 1 is 15.157514
weight of 2 is -0.266667
weight of 3 is 7.000000
not used!
accept
accept
accept
accept
accept
accept
weight of 0 is 6.034124
weight of 1 is 15.156743
weight of 2 is -0.266667
weight of 3 is 6.000000
not used!
accept
accept
info: Increasing stack size by one page.
info: Increasing stack size by one page.
accept
accept
accept
accept
accept
accept
accept
accept
accept
accept
accept
accept
accept
accept
weight of 0 is 5.434212
weight of 1 is 10.648636
weight of 2 is -0.711111
weight of 3 is 5.000000
not used!
weight of 0 is 4.942268
weight of 1 is 6.128444
weight of 2 is -1.866667
weight of 3 is 4.000000
not used!
weight of 0 is 4.450329
weight of 1 is 6.128008
weight of 2 is -2.688889
weight of 3 is 3.000000
not used!
weight of 0 is 3.902836
weight of 1 is 1.606108
weight of 2 is -2.688889
weight of 3 is 2.000000
not used!
weight of 0 is 3.386198
weight of 1 is -0.911376
weight of 2 is -3.577778
weight of 3 is 1.000000
not used!
weight of 0 is 2.853154
weight of 1 is -2.246386
weight of 2 is -4.822222
weight of 3 is 0.000000
not used!
weight of 0 is 2.320100
weight of 1 is -2.247512
weight of 2 is -5.977778
weight of 3 is -1.000000
not used!
weight of 0 is 1.787029
weight of 1 is -2.248988
weight of 2 is -6.511111
weight of 3 is -2.000000
not used!
weight of 0 is 1.253958
weight of 1 is -2.268218
weight of 2 is -7.844444
weight of 3 is -3.000000
not used!
weight of 0 is 0.720578
weight of 1 is -2.273572
weight of 2 is -9.133333
weight of 3 is -4.000000
not used!
weight of 0 is 0.679672
weight of 1 is -3.486537
weight of 2 is -9.133333
weight of 3 is -5.000000
not used!
deny
deny
deny
deny
deny
deny
deny
deny
deny
deny
deny
deny
deny
deny
deny
deny
deny
deny
deny
deny
weight of 0 is 0.694798
weight of 1 is -3.473837
weight of 2 is -9.133333
weight of 3 is -4.000000
used!
weight of 0 is 0.709924
weight of 1 is -3.461136
weight of 2 is -9.133333
weight of 3 is -3.000000
used!
deny
deny
deny
deny
weight of 0 is 0.750773
weight of 1 is 1.095099
weight of 2 is -9.133333
weight of 3 is -2.000000
used!
weight of 0 is 0.791623
weight of 1 is 5.651333
weight of 2 is -9.133333
weight of 3 is -1.000000
used!
accept
accept
weight of 0 is 0.806749
weight of 1 is 5.651352
weight of 2 is -9.133333
weight of 3 is 0.000000
used!
weight of 0 is 0.821875
weight of 1 is 5.651371
weight of 2 is -9.133333
weight of 3 is 1.000000
used!
accept
accept
weight of 0 is 0.862725
weight of 1 is 10.207606
weight of 2 is -9.133333
weight of 3 is 2.000000
used!
weight of 0 is 0.903576
weight of 1 is 14.763841
weight of 2 is -9.133333
weight of 3 is 3.000000
used!
accept
accept
accept
accept
accept
accept
accept
accept
weight of 0 is 0.862725
weight of 1 is 10.207587
weight of 2 is -9.133333
weight of 3 is 2.000000
not used!
weight of 0 is 0.847599
weight of 1 is 10.207531
weight of 2 is -9.133333
weight of 3 is 1.000000
not used!
accept
accept
weight of 0 is 0.832473
weight of 1 is 10.199264
weight of 2 is -9.133333
weight of 3 is 0.000000
not used!
accept
accept
weight of 0 is 0.245114
weight of 1 is 6.735604
weight of 2 is -9.133333
weight of 3 is -1.000000
not used!
accept
accept
weight of 0 is 0.229988
weight of 1 is 3.271229
weight of 2 is -9.133333
weight of 3 is -2.000000
not used!
deny
deny
deny
deny
deny
deny
weight of 0 is 0.245114
weight of 1 is 3.278763
weight of 2 is -9.133333
weight of 3 is -1.000000
used!
weight of 0 is 0.260240
weight of 1 is 3.286297
weight of 2 is -9.133333
weight of 3 is 0.000000
used!
accept
accept
weight of 0 is 0.275366
weight of 1 is 3.286315
weight of 2 is -9.133333
weight of 3 is 1.000000
used!
weight of 0 is 0.290492
weight of 1 is 3.286334
weight of 2 is -9.133333
weight of 3 is 2.000000
used!
accept
accept
accept
accept
accept
accept
weight of 0 is 0.275366
weight of 1 is 3.286297
weight of 2 is -9.133333
weight of 3 is 1.000000
not used!
accept
accept
accept
accept
accept
accept
weight of 0 is 0.260656
weight of 1 is 3.274176
weight of 2 is -9.311111
weight of 3 is 0.000000
not used!
accept
accept
accept
accept
weight of 0 is 0.245530
weight of 1 is 3.274120
weight of 2 is -9.311111
weight of 3 is -1.000000
not used!
deny
deny
deny
deny
deny
deny
deny
deny
deny
deny
deny
deny
deny
deny
weight of 0 is 0.260656
weight of 1 is 3.274665
weight of 2 is -9.311111
weight of 3 is 0.000000
used!
weight of 0 is 0.275782
weight of 1 is 3.275210
weight of 2 is -9.311111
weight of 3 is 1.000000
used!
accept
accept
accept
accept
accept
accept
accept
accept
accept
accept
accept
accept
accept
accept
accept
accept
accept
accept
accept
accept
accept
accept
accept
accept
accept
accept
accept
accept
accept
accept
accept
accept
accept
accept
accept
accept
accept
accept
accept
accept
accept
accept
accept
accept
weight of 0 is 0.260656
weight of 1 is 3.275153
weight of 2 is -9.311111
weight of 3 is 0.000000
not used!
weight of 0 is 0.245530
weight of 1 is 3.275097
weight of 2 is -9.311111
weight of 3 is -1.000000
not used!
deny
deny
deny
deny
deny
deny
weight of 0 is 0.260656
weight of 1 is 3.277596
weight of 2 is -9.311111
weight of 3 is 0.000000
used!
weight of 0 is 0.275782
weight of 1 is 3.280094
weight of 2 is -9.311111
weight of 3 is 1.000000
used!
accept
accept
weight of 0 is 0.290908
weight of 1 is 3.280113
weight of 2 is -9.311111
weight of 3 is 2.000000
used!
weight of 0 is 0.306034
weight of 1 is 3.280132
weight of 2 is -9.311111
weight of 3 is 3.000000
used!
accept
accept
accept
accept
accept
accept
accept
accept
accept
accept
accept
accept
accept
accept
accept
accept
accept
accept
weight of 0 is 0.290908
weight of 1 is 3.280076
weight of 2 is -9.311111
weight of 3 is 2.000000
not used!
accept
accept
accept
accept
accept
accept
weight of 0 is 0.275782
weight of 1 is 3.278592
weight of 2 is -9.311111
weight of 3 is 1.000000
not used!
weight of 0 is 0.260656
weight of 1 is 3.278047
weight of 2 is -9.311111
weight of 3 is 0.000000
not used!
accept
accept
weight of 0 is -0.244896
weight of 1 is 3.166375
weight of 2 is -9.311111
weight of 3 is -1.000000
not used!
accept
accept
weight of 0 is -0.832255
weight of 1 is -0.186591
weight of 2 is -9.311111
weight of 3 is -2.000000
not used!
deny
deny
deny
deny
deny
deny
deny
deny
weight of 0 is -0.817128
weight of 1 is 3.301343
weight of 2 is -9.311111
weight of 3 is -1.000000
used!
weight of 0 is -0.802002
weight of 1 is 6.789277
weight of 2 is -9.311111
weight of 3 is 0.000000
used!
accept
accept
weight of 0 is -0.786876
weight of 1 is 6.789295
weight of 2 is -9.311111
weight of 3 is 1.000000
used!
weight of 0 is -0.771750
weight of 1 is 6.789314
weight of 2 is -9.311111
weight of 3 is 2.000000
used!
accept
accept
accept
accept
accept
accept
accept
accept
accept
accept
Exiting @ tick 86548991000 because a thread reached the max instruction count
