Running SPEC test: omnetpp

/home/victorfu/cpu2017/benchspec/CPU/520.omnetpp_r
/home/victorfu/finalproject/gem5/build/X86/gem6.opt --outdir="/home/victorfu/output/bench_spec/fastforward-p3/omnetpp" /home/victorfu/finalproject/gem5/configs/example/se.py --cmd=omnetpp_r_base.victor_jun10-m64 --standard-switch=1 --warmup-insts=06000000 --caches  --l2cache --l1i_size=16kB  --l1d_size=64kB --l2_size=256kB --cpu-type=DerivO3CPU  --mem-type=DDR3_1600_8x8  --cpu-clock=1GHz --maxinsts=100000000 --options="-c General -r" --l2-hwp-type=TaggedPrefetcher --mlu_pf_type=perceptron

gem5 Simulator System.  http://gem5.org
gem5 is copyrighted software; use the --copyright option for details.

gem5 compiled Jun 14 2019 14:23:51
gem5 started Jun 14 2019 19:50:59
gem5 executing on tetracosa.cs.ucla.edu, pid 444351
command line: /home/victorfu/finalproject/gem5/build/X86/gem6.opt --outdir=/home/victorfu/output/bench_spec/fastforward-p3/omnetpp /home/victorfu/finalproject/gem5/configs/example/se.py --cmd=omnetpp_r_base.victor_jun10-m64 --standard-switch=1 --warmup-insts=06000000 --caches --l2cache --l1i_size=16kB --l1d_size=64kB --l2_size=256kB --cpu-type=DerivO3CPU --mem-type=DDR3_1600_8x8 --cpu-clock=1GHz --maxinsts=100000000 '--options=-c General -r' --l2-hwp-type=TaggedPrefetcher --mlu_pf_type=perceptron

info: Standard input is not a terminal, disabling listeners.
Warning: l2-hwp-type is set ( TaggedPrefetcher ), but the current l2 has a default Hardware Prefetcher of type <class 'm5.params.NullSimObject'> , using the specified by the flag option.
MLU-Prefetch Perceptron Enabled.
Global frequency set at 1000000000000 ticks per second
warn: DRAM device capacity (8192 Mbytes) does not match the address range assigned (512 Mbytes)
warn: Sockets disabled, not accepting gdb connections
Switch at instruction count:1
info: Entering event queue @ 0.  Starting simulation...
accept
accept
accept
accept
Switched CPUS @ tick 120000
switching cpus
info: Entering event queue @ 120000.  Starting simulation...
accept
accept
accept
accept
warn: ClockedObject: Already in the requested power state, request ignored
Switch at instruction count:1572864
info: Entering event queue @ 8066000.  Starting simulation...
accept
accept
accept
accept
accept
accept
accept
accept
accept
accept
accept
accept
accept
accept
accept
accept
accept
accept
accept
accept
accept
accept
accept
accept
accept
accept
accept
accept
accept
accept
accept
accept
accept
accept
accept
accept
accept
accept
accept
accept
accept
accept
accept
accept
accept
accept
accept
accept
accept
accept
accept
accept
accept
accept
accept
accept
accept
accept
accept
accept
accept
accept
accept
accept
accept
accept
accept
accept
accept
accept
accept
accept
accept
accept
accept
accept
accept
accept
accept
accept
accept
accept
accept
accept
accept
accept
accept
accept
accept
accept
accept
accept
accept
accept
accept
accept
accept
accept
info: Increasing stack size by one page.
accept
accept
accept
accept
accept
accept
accept
accept
accept
accept
accept
accept
accept
accept
accept
accept
accept
accept
accept
accept
accept
accept
accept
accept
accept
accept
accept
accept
accept
accept
accept
accept
accept
accept
accept
accept
accept
accept
accept
accept
accept
accept
accept
accept
accept
accept
accept
accept
accept
accept
accept
accept
accept
accept
accept
accept
accept
accept
accept
accept
accept
accept
accept
accept
accept
accept
accept
accept
accept
accept
accept
accept
accept
accept
accept
accept
accept
accept
accept
accept
accept
accept
accept
accept
accept
accept
accept
accept
accept
accept
accept
accept
accept
accept
accept
accept
accept
accept
accept
accept
accept
accept
accept
accept
accept
accept
accept
accept
accept
accept
accept
accept
accept
accept
accept
accept
accept
accept
accept
accept
accept
accept
accept
accept
accept
accept
accept
accept
accept
accept
accept
accept
accept
accept
accept
accept
accept
accept
accept
accept
accept
accept
accept
accept
accept
accept
accept
accept
accept
accept
accept
accept
accept
accept
weight of 0 is -0.501081
weight of 1 is -0.000009
weight of 2 is -1.244444
weight of 3 is -1.000000
not used!
deny
deny
weight of 0 is -1.002120
weight of 1 is -0.000289
weight of 2 is -1.600000
weight of 3 is -2.000000
not used!
deny
deny
deny
deny
deny
deny
deny
deny
deny
deny
weight of 0 is -1.503167
weight of 1 is -0.041276
weight of 2 is -2.666667
weight of 3 is -3.000000
not used!
deny
deny
weight of 0 is -1.002623
weight of 1 is -0.033620
weight of 2 is -1.955556
weight of 3 is -2.000000
used!
weight of 0 is -0.502078
weight of 1 is -0.025964
weight of 2 is -1.244444
weight of 3 is -1.000000
used!
deny
deny
weight of 0 is -0.001534
weight of 1 is 0.004608
weight of 2 is -1.244444
weight of 3 is 0.000000
used!
weight of 0 is 0.499010
weight of 1 is 0.035179
weight of 2 is -1.244444
weight of 3 is 1.000000
used!
accept
accept
weight of 0 is -0.002038
weight of 1 is 0.034221
weight of 2 is -1.244444
weight of 3 is 0.000000
not used!
accept
accept
weight of 0 is -0.503076
weight of 1 is 0.033319
weight of 2 is -1.244444
weight of 3 is -1.000000
not used!
deny
deny
deny
deny
deny
deny
deny
deny
weight of 0 is -1.003620
weight of 1 is 0.032004
weight of 2 is -1.244444
weight of 3 is -2.000000
not used!
deny
deny
weight of 0 is -1.504148
weight of 1 is 0.030684
weight of 2 is -2.311111
weight of 3 is -3.000000
not used!
weight of 0 is -2.005182
weight of 1 is -0.010530
weight of 2 is -3.022222
weight of 3 is -4.000000
not used!
deny
deny
weight of 0 is -1.504638
weight of 1 is 0.003833
weight of 2 is -2.311111
weight of 3 is -3.000000
used!
weight of 0 is -1.004094
weight of 1 is 0.018195
weight of 2 is -1.600000
weight of 3 is -2.000000
used!
deny
deny
weight of 0 is -0.503550
weight of 1 is 0.018461
weight of 2 is -1.244444
weight of 3 is -1.000000
used!
weight of 0 is -0.003006
weight of 1 is 0.018726
weight of 2 is -0.888889
weight of 3 is 0.000000
used!
accept
accept
accept
accept
weight of 0 is 0.497539
weight of 1 is 0.038265
weight of 2 is 0.177778
weight of 3 is 1.000000
used!
weight of 0 is 0.998083
weight of 1 is 0.057804
weight of 2 is 1.244444
weight of 3 is 2.000000
used!
weight of 0 is 0.497558
weight of 1 is 0.057542
weight of 2 is 1.155556
weight of 3 is 1.000000
not used!
weight of 0 is -0.003375
weight of 1 is 0.024365
weight of 2 is 1.155556
weight of 3 is 0.000000
not used!
weight of 0 is -0.503919
weight of 1 is -0.007163
weight of 2 is -0.088889
weight of 3 is -1.000000
not used!
deny
deny
deny
deny
deny
deny
weight of 0 is -1.004443
weight of 1 is -0.008925
weight of 2 is -0.177778
weight of 3 is -2.000000
not used!
weight of 0 is -1.504967
weight of 1 is -0.008953
weight of 2 is -0.977778
weight of 3 is -3.000000
not used!
deny
deny
weight of 0 is -2.005492
weight of 1 is -0.009073
weight of 2 is -2.311111
weight of 3 is -4.000000
not used!
deny
deny
deny
deny
weight of 0 is -2.506020
weight of 1 is -0.009412
weight of 2 is -2.311111
weight of 3 is -5.000000
not used!
deny
deny
deny
deny
deny
deny
weight of 0 is -2.005476
weight of 1 is -0.009279
weight of 2 is -2.311111
weight of 3 is -4.000000
used!
weight of 0 is -1.504931
weight of 1 is -0.009145
weight of 2 is -2.311111
weight of 3 is -3.000000
used!
deny
deny
weight of 0 is -2.006010
weight of 1 is -0.053889
weight of 2 is -3.200000
weight of 3 is -4.000000
not used!
deny
deny
weight of 0 is -1.505465
weight of 1 is -0.015387
weight of 2 is -3.200000
weight of 3 is -3.000000
used!
weight of 0 is -1.004921
weight of 1 is 0.023115
weight of 2 is -3.200000
weight of 3 is -2.000000
used!
weight of 0 is -1.505465
weight of 1 is -0.009206
weight of 2 is -3.555556
weight of 3 is -3.000000
not used!
deny
deny
weight of 0 is -1.004921
weight of 1 is -0.009187
weight of 2 is -3.555556
weight of 3 is -2.000000
used!
weight of 0 is -0.504377
weight of 1 is -0.009168
weight of 2 is -3.555556
weight of 3 is -1.000000
used!
weight of 0 is -1.004761
weight of 1 is -0.022160
weight of 2 is -4.622222
weight of 3 is -2.000000
not used!
deny
deny
deny
deny
weight of 0 is -0.504217
weight of 1 is -0.021958
weight of 2 is -4.266667
weight of 3 is -1.000000
used!
weight of 0 is -0.003673
weight of 1 is -0.021756
weight of 2 is -3.911111
weight of 3 is 0.000000
used!
weight of 0 is -0.504721
weight of 1 is -0.064602
weight of 2 is -4.444444
weight of 3 is -1.000000
not used!
deny
deny
weight of 0 is -0.004177
weight of 1 is -0.064480
weight of 2 is -3.733333
weight of 3 is 0.000000
used!
weight of 0 is 0.496368
weight of 1 is -0.064358
weight of 2 is -3.022222
weight of 3 is 1.000000
used!
weight of 0 is -0.004176
weight of 1 is -0.105340
weight of 2 is -3.022222
weight of 3 is 0.000000
not used!
accept
accept
deny
deny
weight of 0 is -0.505221
weight of 1 is -0.146064
weight of 2 is -3.911111
weight of 3 is -1.000000
not used!
deny
deny
weight of 0 is -0.004677
weight of 1 is -0.136546
weight of 2 is -2.844444
weight of 3 is 0.000000
used!
weight of 0 is 0.495868
weight of 1 is -0.127028
weight of 2 is -1.777778
weight of 3 is 1.000000
used!
weight of 0 is -0.004883
weight of 1 is -0.143864
weight of 2 is -3.022222
weight of 3 is 0.000000
not used!
deny
deny
accept
accept
deny
deny
deny
deny
weight of 0 is -0.505496
weight of 1 is -0.149502
weight of 2 is -3.200000
weight of 3 is -1.000000
not used!
deny
deny
weight of 0 is -1.006109
weight of 1 is -0.149522
weight of 2 is -3.288889
weight of 3 is -2.000000
not used!
deny
deny
weight of 0 is -1.506653
weight of 1 is -0.155021
weight of 2 is -3.822222
weight of 3 is -3.000000
not used!
deny
deny
weight of 0 is -2.007266
weight of 1 is -0.160508
weight of 2 is -4.444444
weight of 3 is -4.000000
not used!
deny
deny
weight of 0 is -1.506722
weight of 1 is -0.142796
weight of 2 is -3.377778
weight of 3 is -3.000000
used!
weight of 0 is -1.006178
weight of 1 is -0.125085
weight of 2 is -2.311111
weight of 3 is -2.000000
used!
deny
deny
deny
deny
deny
deny
deny
deny
weight of 0 is -0.505634
weight of 1 is -0.085976
weight of 2 is -2.311111
weight of 3 is -1.000000
used!
weight of 0 is -0.005089
weight of 1 is -0.046868
weight of 2 is -2.311111
weight of 3 is 0.000000
used!
deny
deny
weight of 0 is -0.505802
weight of 1 is -0.060614
weight of 2 is -3.200000
weight of 3 is -1.000000
not used!
warn: ignoring syscall access(...)
deny
deny
weight of 0 is -1.006554
weight of 1 is -0.077511
weight of 2 is -3.755556
weight of 3 is -2.000000
not used!
deny
deny
weight of 0 is -1.507308
weight of 1 is -0.094642
weight of 2 is -5.000000
weight of 3 is -3.000000
not used!
deny
deny
deny
deny
weight of 0 is -2.008018
weight of 1 is -0.098301
weight of 2 is -5.177778
weight of 3 is -4.000000
not used!
deny
deny
deny
deny
weight of 0 is -1.507474
weight of 1 is -0.080585
weight of 2 is -5.177778
weight of 3 is -3.000000
used!
weight of 0 is -1.006929
weight of 1 is -0.062868
weight of 2 is -5.177778
weight of 3 is -2.000000
used!
weight of 0 is -1.507474
weight of 1 is -0.076217
weight of 2 is -6.066667
weight of 3 is -3.000000
not used!
deny
deny
deny
deny
deny
deny
weight of 0 is -1.006930
weight of 1 is -0.064639
weight of 2 is -5.711111
weight of 3 is -2.000000
used!
weight of 0 is -0.506385
weight of 1 is -0.053061
weight of 2 is -5.355556
weight of 3 is -1.000000
used!
deny
deny
weight of 0 is -0.005841
weight of 1 is -0.053047
weight of 2 is -5.355556
weight of 3 is 0.000000
used!
weight of 0 is 0.494703
weight of 1 is -0.053033
weight of 2 is -5.355556
weight of 3 is 1.000000
used!
accept
accept
weight of 0 is -0.006401
weight of 1 is -0.098590
weight of 2 is -5.888889
weight of 3 is 0.000000
not used!
deny
deny
weight of 0 is 0.494144
weight of 1 is -0.098571
weight of 2 is -5.888889
weight of 3 is 1.000000
used!
weight of 0 is 0.994688
weight of 1 is -0.098552
weight of 2 is -5.888889
weight of 3 is 2.000000
used!
weight of 0 is 0.493585
weight of 1 is -0.098592
weight of 2 is -6.244444
weight of 3 is 1.000000
not used!
accept
accept
weight of 0 is 0.994129
weight of 1 is -0.098574
weight of 2 is -6.244444
weight of 3 is 2.000000
used!
weight of 0 is 1.494673
weight of 1 is -0.098555
weight of 2 is -6.244444
weight of 3 is 3.000000
used!
weight of 0 is 0.993627
weight of 1 is -0.098583
weight of 2 is -6.244444
weight of 3 is 2.000000
not used!
deny
deny
weight of 0 is 0.493083
weight of 1 is -0.139427
weight of 2 is -6.244444
weight of 3 is 1.000000
not used!
accept
accept
weight of 0 is -0.008020
weight of 1 is -0.184871
weight of 2 is -7.488889
weight of 3 is 0.000000
not used!
weight of 0 is -0.508564
weight of 1 is -0.204947
weight of 2 is -7.844444
weight of 3 is -1.000000
not used!
deny
deny
deny
deny
weight of 0 is -1.009108
weight of 1 is -0.206356
weight of 2 is -8.200000
weight of 3 is -2.000000
not used!
deny
deny
weight of 0 is -1.509653
weight of 1 is -0.233091
weight of 2 is -8.555556
weight of 3 is -3.000000
not used!
deny
deny
weight of 0 is -2.010197
weight of 1 is -0.233175
weight of 2 is -9.622222
weight of 3 is -4.000000
not used!
deny
deny
deny
deny
deny
deny
weight of 0 is -2.511165
weight of 1 is -0.267683
weight of 2 is -10.333333
weight of 3 is -5.000000
not used!
deny
deny
weight of 0 is -2.010621
weight of 1 is -0.245274
weight of 2 is -9.266667
weight of 3 is -4.000000
used!
weight of 0 is -1.510076
weight of 1 is -0.222866
weight of 2 is -8.200000
weight of 3 is -3.000000
used!
weight of 0 is -2.010620
weight of 1 is -0.239586
weight of 2 is -8.911111
weight of 3 is -4.000000
not used!
deny
deny
weight of 0 is -2.511210
weight of 1 is -0.243276
weight of 2 is -10.200000
weight of 3 is -5.000000
not used!
deny
deny
weight of 0 is -3.011754
weight of 1 is -0.246900
weight of 2 is -10.200000
weight of 3 is -6.000000
not used!
deny
deny
deny
deny
deny
deny
deny
deny
weight of 0 is -3.512298
weight of 1 is -0.248746
weight of 2 is -11.266667
weight of 3 is -7.000000
not used!
deny
deny
weight of 0 is -4.012842
weight of 1 is -0.248807
weight of 2 is -11.977778
weight of 3 is -8.000000
not used!
deny
deny
deny
deny
weight of 0 is -3.512298
weight of 1 is -0.246168
weight of 2 is -11.266667
weight of 3 is -7.000000
used!
weight of 0 is -3.011754
weight of 1 is -0.243528
weight of 2 is -10.555556
weight of 3 is -6.000000
used!
deny
deny
deny
deny
deny
deny
deny
deny
deny
deny
deny
deny
deny
deny
weight of 0 is -2.511210
weight of 1 is -0.238150
weight of 2 is -9.488889
weight of 3 is -5.000000
used!
weight of 0 is -2.010665
weight of 1 is -0.232772
weight of 2 is -8.422222
weight of 3 is -4.000000
used!
deny
deny
deny
deny
deny
deny
weight of 0 is -2.511210
weight of 1 is -0.263100
weight of 2 is -8.600000
weight of 3 is -5.000000
not used!
deny
deny
deny
deny
weight of 0 is -2.010665
weight of 1 is -0.235715
weight of 2 is -7.533333
weight of 3 is -4.000000
used!
weight of 0 is -1.510121
weight of 1 is -0.208330
weight of 2 is -6.466667
weight of 3 is -3.000000
used!
deny
deny
deny
deny
weight of 0 is -2.011039
weight of 1 is -0.208386
weight of 2 is -6.644444
weight of 3 is -4.000000
not used!
deny
deny
weight of 0 is -1.510495
weight of 1 is -0.208382
weight of 2 is -6.644444
weight of 3 is -3.000000
used!
weight of 0 is -1.009951
weight of 1 is -0.208377
weight of 2 is -6.644444
weight of 3 is -2.000000
used!
weight of 0 is -1.510867
weight of 1 is -0.208509
weight of 2 is -6.822222
weight of 3 is -3.000000
not used!
weight of 0 is -2.011411
weight of 1 is -0.238777
weight of 2 is -6.822222
weight of 3 is -4.000000
not used!
deny
deny
weight of 0 is -1.510408
weight of 1 is -0.201402
weight of 2 is -6.288889
weight of 3 is -3.000000
used!
weight of 0 is -1.009404
weight of 1 is -0.164027
weight of 2 is -5.755556
weight of 3 is -2.000000
used!
weight of 0 is -1.510301
weight of 1 is -0.192734
weight of 2 is -5.755556
weight of 3 is -3.000000
not used!
deny
deny
weight of 0 is -1.009757
weight of 1 is -0.155346
weight of 2 is -5.755556
weight of 3 is -2.000000
used!
weight of 0 is -0.509213
weight of 1 is -0.117959
weight of 2 is -5.755556
weight of 3 is -1.000000
used!
deny
deny
weight of 0 is -1.009757
weight of 1 is -0.146590
weight of 2 is -5.755556
weight of 3 is -2.000000
not used!
weight of 0 is -1.510803
weight of 1 is -0.176720
weight of 2 is -6.822222
weight of 3 is -3.000000
not used!
deny
deny
weight of 0 is -2.011348
weight of 1 is -0.207067
weight of 2 is -7.533333
weight of 3 is -4.000000
not used!
deny
deny
weight of 0 is -2.512401
weight of 1 is -0.236606
weight of 2 is -8.688889
weight of 3 is -5.000000
not used!
deny
deny
deny
deny
weight of 0 is -3.012945
weight of 1 is -0.276657
weight of 2 is -8.688889
weight of 3 is -6.000000
not used!
deny
deny
weight of 0 is -2.512401
weight of 1 is -0.276413
weight of 2 is -8.688889
weight of 3 is -5.000000
used!
weight of 0 is -2.011857
weight of 1 is -0.276169
weight of 2 is -8.688889
weight of 3 is -4.000000
used!
deny
deny
deny
deny
deny
deny
deny
deny
weight of 0 is -2.512401
weight of 1 is -0.276197
weight of 2 is -9.044444
weight of 3 is -5.000000
not used!
deny
deny
weight of 0 is -2.011857
weight of 1 is -0.255155
weight of 2 is -9.044444
weight of 3 is -4.000000
used!
weight of 0 is -1.511313
weight of 1 is -0.234113
weight of 2 is -9.044444
weight of 3 is -3.000000
used!
deny
deny
weight of 0 is -1.010769
weight of 1 is -0.233940
weight of 2 is -8.688889
weight of 3 is -2.000000
used!
weight of 0 is -0.510224
weight of 1 is -0.233766
weight of 2 is -8.333333
weight of 3 is -1.000000
used!
deny
deny
deny
deny
deny
deny
weight of 0 is -1.002346
weight of 1 is -0.233820
weight of 2 is -8.511111
weight of 3 is -2.000000
not used!
deny
deny
deny
deny
deny
deny
deny
deny
deny
deny
deny
deny
weight of 0 is -1.502890
weight of 1 is -0.262064
weight of 2 is -9.222222
weight of 3 is -3.000000
not used!
deny
deny
weight of 0 is -2.003060
weight of 1 is -0.292524
weight of 2 is -9.488889
weight of 3 is -4.000000
not used!
deny
deny
deny
deny
deny
deny
deny
deny
weight of 0 is -1.502180
weight of 1 is -0.292468
weight of 2 is -8.600000
weight of 3 is -3.000000
used!
weight of 0 is -1.001299
weight of 1 is -0.292411
weight of 2 is -7.711111
weight of 3 is -2.000000
used!
deny
deny
deny
deny
deny
deny
deny
deny
weight of 0 is -1.501843
weight of 1 is -0.312857
weight of 2 is -8.244444
weight of 3 is -3.000000
not used!
deny
deny
weight of 0 is -2.002387
weight of 1 is -0.313169
weight of 2 is -8.244444
weight of 3 is -4.000000
not used!
deny
deny
weight of 0 is -1.501843
weight of 1 is -0.313099
weight of 2 is -7.177778
weight of 3 is -3.000000
used!
weight of 0 is -1.001299
weight of 1 is -0.313028
weight of 2 is -6.111111
weight of 3 is -2.000000
used!
deny
deny
weight of 0 is -0.500754
weight of 1 is -0.312920
weight of 2 is -5.044444
weight of 3 is -1.000000
used!
weight of 0 is -0.000210
weight of 1 is -0.312812
weight of 2 is -3.977778
weight of 3 is 0.000000
used!
weight of 0 is -0.500512
weight of 1 is -0.333513
weight of 2 is -4.155556
weight of 3 is -1.000000
not used!
deny
deny
deny
deny
weight of 0 is 0.000032
weight of 1 is -0.332593
weight of 2 is -3.444444
weight of 3 is 0.000000
used!
weight of 0 is 0.500577
weight of 1 is -0.331672
weight of 2 is -2.733333
weight of 3 is 1.000000
used!
weight of 0 is -0.000467
weight of 1 is -0.392078
weight of 2 is -3.266667
weight of 3 is 0.000000
not used!
deny
deny
deny
deny
accept
accept
weight of 0 is -0.492461
weight of 1 is -1.077757
weight of 2 is -3.800000
weight of 3 is -1.000000
not used!
deny
deny
weight of 0 is -0.993005
weight of 1 is -1.763486
weight of 2 is -3.800000
weight of 3 is -2.000000
not used!
deny
deny
weight of 0 is -0.492461
weight of 1 is -1.763481
weight of 2 is -3.800000
weight of 3 is -1.000000
used!
weight of 0 is 0.008083
weight of 1 is -1.763477
weight of 2 is -3.800000
weight of 3 is 0.000000
used!
accept
accept
weight of 0 is 0.508627
weight of 1 is -1.746413
weight of 2 is -3.444444
weight of 3 is 1.000000
used!
weight of 0 is 1.009172
weight of 1 is -1.729349
weight of 2 is -3.088889
weight of 3 is 2.000000
used!
weight of 0 is 0.508480
weight of 1 is -1.729481
weight of 2 is -3.977778
weight of 3 is 1.000000
not used!
deny
deny
weight of 0 is 0.007560
weight of 1 is -1.729536
weight of 2 is -4.955556
weight of 3 is 0.000000
not used!
deny
deny
weight of 0 is -0.493361
weight of 1 is -1.729561
weight of 2 is -5.488889
weight of 3 is -1.000000
not used!
deny
deny
deny
deny
deny
deny
weight of 0 is 0.007183
weight of 1 is -1.694794
weight of 2 is -5.488889
weight of 3 is 0.000000
used!
weight of 0 is 0.507727
weight of 1 is -1.660028
weight of 2 is -5.488889
weight of 3 is 1.000000
used!
weight of 0 is 0.006658
weight of 1 is -1.661672
weight of 2 is -6.733333
weight of 3 is 0.000000
not used!
deny
deny
deny
deny
deny
deny
deny
deny
deny
deny
deny
deny
deny
deny
deny
deny
accept
accept
deny
deny
deny
deny
weight of 0 is 0.507514
weight of 1 is -1.655615
weight of 2 is -5.400000
weight of 3 is 1.000000
used!
weight of 0 is 1.008371
weight of 1 is -1.649558
weight of 2 is -4.066667
weight of 3 is 2.000000
used!
deny
deny
deny
deny
deny
deny
accept
accept
weight of 0 is 1.508915
weight of 1 is -1.622233
weight of 2 is -3.355556
weight of 3 is 3.000000
used!
weight of 0 is 2.009459
weight of 1 is -1.594908
weight of 2 is -2.644444
weight of 3 is 4.000000
used!
weight of 0 is 1.508414
weight of 1 is -1.635651
weight of 2 is -3.533333
weight of 3 is 3.000000
not used!
weight of 0 is 1.007369
weight of 1 is -1.635712
weight of 2 is -4.777778
weight of 3 is 2.000000
not used!
deny
deny
weight of 0 is 1.507913
weight of 1 is -1.631560
weight of 2 is -4.777778
weight of 3 is 3.000000
used!
weight of 0 is 2.008458
weight of 1 is -1.627408
weight of 2 is -4.777778
weight of 3 is 4.000000
used!
accept
accept
weight of 0 is 2.509002
weight of 1 is -1.619611
weight of 2 is -4.777778
weight of 3 is 5.000000
used!
weight of 0 is 3.009546
weight of 1 is -1.611815
weight of 2 is -4.777778
weight of 3 is 6.000000
used!
accept
accept
weight of 0 is 2.509002
weight of 1 is -1.652555
weight of 2 is -5.311111
weight of 3 is 5.000000
not used!
weight of 0 is 2.007959
weight of 1 is -1.693152
weight of 2 is -5.666667
weight of 3 is 4.000000
not used!
accept
accept
weight of 0 is 2.508888
weight of 1 is -1.687360
weight of 2 is -5.355556
weight of 3 is 5.000000
used!
weight of 0 is 3.009817
weight of 1 is -1.681568
weight of 2 is -5.044444
weight of 3 is 6.000000
used!
weight of 0 is 2.509273
weight of 1 is -1.722111
weight of 2 is -5.400000
weight of 3 is 5.000000
not used!
accept
accept
weight of 0 is 2.008728
weight of 1 is -1.747803
weight of 2 is -6.466667
weight of 3 is 4.000000
not used!
accept
accept
weight of 0 is 1.508184
weight of 1 is -1.749381
weight of 2 is -6.822222
weight of 3 is 3.000000
not used!
accept
accept
deny
deny
accept
accept
accept
accept
deny
deny
accept
accept
accept
accept
accept
accept
weight of 0 is 1.007640
weight of 1 is -1.749433
weight of 2 is -7.000000
weight of 3 is 2.000000
not used!
deny
deny
accept
accept
accept
accept
deny
deny
deny
deny
accept
accept
deny
deny
accept
accept
weight of 0 is 0.507096
weight of 1 is -1.749503
weight of 2 is -7.355556
weight of 3 is 1.000000
not used!
deny
deny
deny
deny
accept
accept
deny
deny
accept
accept
deny
deny
accept
accept
weight of 0 is 0.006552
weight of 1 is -1.749599
weight of 2 is -7.533333
weight of 3 is 0.000000
not used!
deny
deny
deny
deny
deny
deny
deny
deny
deny
deny
deny
deny
weight of 0 is 0.507531
weight of 1 is -1.749490
weight of 2 is -6.555556
weight of 3 is 1.000000
used!
weight of 0 is 1.008511
weight of 1 is -1.749381
weight of 2 is -5.577778
weight of 3 is 2.000000
used!
deny
deny
weight of 0 is 1.509491
weight of 1 is -1.747772
weight of 2 is -4.866667
weight of 3 is 3.000000
used!
weight of 0 is 2.010471
weight of 1 is -1.746164
weight of 2 is -4.155556
weight of 3 is 4.000000
used!
accept
accept
deny
deny
accept
accept
weight of 0 is 1.509927
weight of 1 is -1.747065
weight of 2 is -4.155556
weight of 3 is 3.000000
not used!
accept
accept
accept
accept
accept
accept
weight of 0 is 1.009383
weight of 1 is -1.747070
weight of 2 is -4.155556
weight of 3 is 2.000000
not used!
accept
accept
accept
accept
accept
accept
weight of 0 is 1.510362
weight of 1 is -1.747016
weight of 2 is -3.355556
weight of 3 is 3.000000
used!
weight of 0 is 2.011341
weight of 1 is -1.746962
weight of 2 is -2.555556
weight of 3 is 4.000000
used!
accept
accept
weight of 0 is 2.512321
weight of 1 is -1.746937
weight of 2 is -2.200000
weight of 3 is 5.000000
used!
weight of 0 is 3.013301
weight of 1 is -1.746913
weight of 2 is -1.844444
weight of 3 is 6.000000
used!
accept
accept
accept
accept
accept
accept
accept
accept
accept
accept
accept
accept
accept
accept
warn: ignoring syscall mprotect(...)
accept
accept
accept
accept
accept
accept
accept
accept
accept
accept
accept
accept
accept
accept
accept
accept
accept
accept
accept
accept
accept
accept
accept
accept
accept
accept
accept
accept
accept
accept
accept
accept
accept
accept
accept
accept
accept
accept
accept
accept
accept
accept
accept
accept
accept
accept
weight of 0 is 2.512756
weight of 1 is -1.746917
weight of 2 is -1.844444
weight of 3 is 5.000000
not used!
accept
accept
accept
accept
accept
accept
accept
accept
weight of 0 is 2.011899
weight of 1 is -1.752632
weight of 2 is -1.933333
weight of 3 is 4.000000
not used!
accept
accept
accept
accept
weight of 0 is 1.511355
weight of 1 is -1.783945
weight of 2 is -1.933333
weight of 3 is 3.000000
not used!
accept
accept
accept
accept
weight of 0 is 1.010474
weight of 1 is -1.814958
weight of 2 is -1.933333
weight of 3 is 2.000000
not used!
weight of 0 is 0.509929
weight of 1 is -1.845919
weight of 2 is -1.933333
weight of 3 is 1.000000
not used!
weight of 0 is 0.009385
weight of 1 is -1.884245
weight of 2 is -1.933333
weight of 3 is 0.000000
not used!
deny
deny
weight of 0 is -0.491226
weight of 1 is -1.915193
weight of 2 is -2.288889
weight of 3 is -1.000000
not used!
weight of 0 is -0.991800
weight of 1 is -1.942801
weight of 2 is -2.288889
weight of 3 is -2.000000
not used!
weight of 0 is -1.492344
weight of 1 is -1.984079
weight of 2 is -2.288889
weight of 3 is -3.000000
not used!
deny
deny
deny
deny
weight of 0 is -1.992888
weight of 1 is -1.999949
weight of 2 is -2.288889
weight of 3 is -4.000000
not used!
deny
deny
deny
deny
deny
deny
weight of 0 is -2.493432
weight of 1 is -2.040894
weight of 2 is -2.466667
weight of 3 is -5.000000
not used!
deny
deny
deny
deny
deny
deny
deny
deny
deny
deny
weight of 0 is -1.992558
weight of 1 is -2.034365
weight of 2 is -2.022222
weight of 3 is -4.000000
used!
weight of 0 is -1.491684
weight of 1 is -2.027837
weight of 2 is -1.577778
weight of 3 is -3.000000
used!
deny
deny
weight of 0 is -0.990720
weight of 1 is -2.027836
weight of 2 is -1.577778
weight of 3 is -2.000000
used!
weight of 0 is -0.489755
weight of 1 is -2.027835
weight of 2 is -1.577778
weight of 3 is -1.000000
used!
deny
deny
weight of 0 is -0.990299
weight of 1 is -2.027849
weight of 2 is -1.577778
weight of 3 is -2.000000
not used!
deny
deny
weight of 0 is -0.489334
weight of 1 is -2.020585
weight of 2 is -0.222222
weight of 3 is -1.000000
used!
weight of 0 is 0.011631
weight of 1 is -2.013321
weight of 2 is 1.133333
weight of 3 is 0.000000
used!
accept
accept
weight of 0 is -0.489121
weight of 1 is -2.013420
weight of 2 is 1.133333
weight of 3 is -1.000000
not used!
weight of 0 is -0.989665
weight of 1 is -2.019673
weight of 2 is 1.133333
weight of 3 is -2.000000
not used!
weight of 0 is -1.490209
weight of 1 is -2.019730
weight of 2 is 1.133333
weight of 3 is -3.000000
not used!
deny
deny
deny
deny
weight of 0 is -1.991241
weight of 1 is -2.059491
weight of 2 is 0.600000
weight of 3 is -4.000000
not used!
deny
deny
deny
deny
deny
deny
weight of 0 is -1.490257
weight of 1 is -2.059382
weight of 2 is 1.755556
weight of 3 is -3.000000
used!
weight of 0 is -0.989273
weight of 1 is -2.059272
weight of 2 is 2.911111
weight of 3 is -2.000000
used!
accept
accept
weight of 0 is -0.488289
weight of 1 is -2.016350
weight of 2 is 3.800000
weight of 3 is -1.000000
used!
weight of 0 is 0.012696
weight of 1 is -1.973429
weight of 2 is 4.688889
weight of 3 is 0.000000
used!
weight of 0 is -0.488358
weight of 1 is -2.014911
weight of 2 is 4.688889
weight of 3 is -1.000000
not used!
weight of 0 is -0.989411
weight of 1 is -2.014913
weight of 2 is 3.444444
weight of 3 is -2.000000
not used!
weight of 0 is -1.490443
weight of 1 is -2.016707
weight of 2 is 2.911111
weight of 3 is -3.000000
not used!
weight of 0 is -1.990987
weight of 1 is -2.042105
weight of 2 is 2.200000
weight of 3 is -4.000000
not used!
deny
deny
deny
deny
weight of 0 is -1.490004
weight of 1 is -2.042051
weight of 2 is 3.177778
weight of 3 is -3.000000
used!
weight of 0 is -0.989020
weight of 1 is -2.041997
weight of 2 is 4.155556
weight of 3 is -2.000000
used!
weight of 0 is -1.489767
weight of 1 is -2.081610
weight of 2 is 2.911111
weight of 3 is -3.000000
not used!
warn: ignoring syscall mprotect(...)
weight of 0 is -1.990311
weight of 1 is -2.104355
weight of 2 is 2.555556
weight of 3 is -4.000000
not used!
weight of 0 is -2.491362
weight of 1 is -2.122496
weight of 2 is 1.311111
weight of 3 is -5.000000
not used!
weight of 0 is -2.991906
weight of 1 is -2.163337
weight of 2 is 1.311111
weight of 3 is -6.000000
not used!
deny
deny
deny
deny
deny
deny
deny
deny
deny
deny
deny
deny
deny
deny
weight of 0 is -2.467336
weight of 1 is -2.163079
weight of 2 is 1.666667
weight of 3 is -5.000000
used!
weight of 0 is -1.942765
weight of 1 is -2.162821
weight of 2 is 2.022222
weight of 3 is -4.000000
used!
deny
deny
weight of 0 is -1.441713
weight of 1 is -0.248491
weight of 2 is 2.377778
weight of 3 is -3.000000
used!
weight of 0 is -0.940660
weight of 1 is 1.665839
weight of 2 is 2.733333
weight of 3 is -2.000000
used!
accept
accept
accept
accept
weight of 0 is -0.416090
weight of 1 is 3.580183
weight of 2 is 2.733333
weight of 3 is -1.000000
used!
weight of 0 is 0.108481
weight of 1 is 5.494527
weight of 2 is 2.733333
weight of 3 is 0.000000
used!
accept
accept
weight of 0 is 0.609533
weight of 1 is 7.408845
weight of 2 is 3.622222
weight of 3 is 1.000000
used!
weight of 0 is 1.110586
weight of 1 is 9.323164
weight of 2 is 4.511111
weight of 3 is 2.000000
used!
accept
accept
accept
accept
weight of 0 is 1.611570
weight of 1 is 9.323188
weight of 2 is 5.044444
weight of 3 is 3.000000
used!
weight of 0 is 2.112554
weight of 1 is 9.323213
weight of 2 is 5.577778
weight of 3 is 4.000000
used!
accept
accept
weight of 0 is 1.599980
weight of 1 is 9.323157
weight of 2 is 5.577778
weight of 3 is 3.000000
not used!
accept
accept
weight of 0 is 1.087145
weight of 1 is 9.323100
weight of 2 is 5.400000
weight of 3 is 2.000000
not used!
weight of 0 is 0.586097
weight of 1 is 8.363707
weight of 2 is 5.400000
weight of 3 is 1.000000
not used!
accept
accept
weight of 0 is 0.085553
weight of 1 is 8.363375
weight of 2 is 4.511111
weight of 3 is 0.000000
not used!
weight of 0 is -0.415658
weight of 1 is 8.303622
weight of 2 is 3.622222
weight of 3 is -1.000000
not used!
weight of 0 is -0.916203
weight of 1 is 8.243924
weight of 2 is 3.622222
weight of 3 is -2.000000
not used!
accept
accept
accept
accept
accept
accept
deny
deny
deny
deny
deny
deny
accept
accept
deny
deny
deny
deny
accept
accept
deny
deny
weight of 0 is -0.415321
weight of 1 is 8.252151
weight of 2 is 3.888889
weight of 3 is -1.000000
used!
weight of 0 is 0.085562
weight of 1 is 8.260379
weight of 2 is 4.155556
weight of 3 is 0.000000
used!
weight of 0 is -0.414982
weight of 1 is 8.260008
weight of 2 is 3.977778
weight of 3 is -1.000000
not used!
deny
deny
accept
accept
deny
deny
weight of 0 is 0.085996
weight of 1 is 8.267710
weight of 2 is 4.000000
weight of 3 is 0.000000
used!
weight of 0 is 0.586976
weight of 1 is 8.275412
weight of 2 is 4.022222
weight of 3 is 1.000000
used!
weight of 0 is 0.095162
weight of 1 is 7.579727
weight of 2 is 3.244444
weight of 3 is 0.000000
not used!
weight of 0 is -0.405382
weight of 1 is 6.869014
weight of 2 is 3.244444
weight of 3 is -1.000000
not used!
accept
accept
deny
deny
deny
deny
accept
accept
accept
accept
deny
deny
accept
accept
accept
accept
warn: ignoring syscall mprotect(...)
accept
accept
deny
deny
deny
deny
deny
deny
weight of 0 is 0.126826
weight of 1 is 6.869056
weight of 2 is 3.244444
weight of 3 is 0.000000
used!
weight of 0 is 0.659034
weight of 1 is 6.869099
weight of 2 is 3.244444
weight of 3 is 1.000000
used!
accept
accept
weight of 0 is 1.191242
weight of 1 is 6.869117
weight of 2 is 3.244444
weight of 3 is 2.000000
used!
weight of 0 is 1.723451
weight of 1 is 6.869136
weight of 2 is 3.244444
weight of 3 is 3.000000
used!
accept
accept
accept
accept
weight of 0 is 1.222907
weight of 1 is 6.813864
weight of 2 is 3.244444
weight of 3 is 2.000000
not used!
accept
accept
accept
accept
accept
accept
accept
accept
accept
accept
accept
accept
accept
accept
weight of 0 is 0.721923
weight of 1 is 6.813854
weight of 2 is 2.000000
weight of 3 is 1.000000
not used!
accept
accept
accept
accept
accept
accept
accept
accept
accept
accept
accept
accept
accept
accept
accept
accept
accept
accept
weight of 0 is 0.220872
weight of 1 is 6.813744
weight of 2 is 0.755556
weight of 3 is 0.000000
not used!
accept
accept
weight of 0 is -0.280181
weight of 1 is 4.899416
weight of 2 is 0.577778
weight of 3 is -1.000000
not used!
weight of 0 is -0.804752
weight of 1 is 2.985032
weight of 2 is 0.577778
weight of 3 is -2.000000
not used!
weight of 0 is -1.305806
weight of 1 is 1.070850
weight of 2 is -0.666667
weight of 3 is -3.000000
not used!
weight of 0 is -1.818923
weight of 1 is 0.083478
weight of 2 is -1.022222
weight of 3 is -4.000000
not used!
deny
deny
weight of 0 is -2.319930
weight of 1 is -0.905548
weight of 2 is -2.266667
weight of 3 is -5.000000
not used!
weight of 0 is -2.832895
weight of 1 is -1.899970
weight of 2 is -2.955556
weight of 3 is -6.000000
not used!
deny
deny
deny
deny
weight of 0 is -2.308604
weight of 1 is -1.899839
weight of 2 is -2.777778
weight of 3 is -5.000000
used!
weight of 0 is -1.784314
weight of 1 is -1.899707
weight of 2 is -2.600000
weight of 3 is -4.000000
used!
deny
deny
deny
deny
deny
deny
deny
deny
deny
deny
weight of 0 is -1.259789
weight of 1 is -1.899605
weight of 2 is -1.977778
weight of 3 is -3.000000
used!
weight of 0 is -0.735264
weight of 1 is -1.899503
weight of 2 is -1.355556
weight of 3 is -2.000000
used!
deny
deny
weight of 0 is -0.210740
weight of 1 is 0.018251
weight of 2 is -1.000000
weight of 3 is -1.000000
used!
weight of 0 is 0.313785
weight of 1 is 1.936005
weight of 2 is -0.644444
weight of 3 is 0.000000
used!
weight of 0 is -0.187109
weight of 1 is 0.949839
weight of 2 is -1.088889
weight of 3 is -1.000000
not used!
weight of 0 is -0.688110
weight of 1 is 0.941245
weight of 2 is -2.111111
weight of 3 is -2.000000
not used!
weight of 0 is -1.188996
weight of 1 is 0.931996
weight of 2 is -2.733333
weight of 3 is -3.000000
not used!
weight of 0 is -1.689881
weight of 1 is 0.924494
weight of 2 is -3.888889
weight of 3 is -4.000000
not used!
deny
deny
weight of 0 is -2.190860
weight of 1 is 0.916767
weight of 2 is -4.800000
weight of 3 is -5.000000
not used!
deny
deny
deny
deny
weight of 0 is -1.666336
weight of 1 is 0.916791
weight of 2 is -4.800000
weight of 3 is -4.000000
used!
weight of 0 is -1.141811
weight of 1 is 0.916816
weight of 2 is -4.800000
weight of 3 is -3.000000
used!
deny
deny
weight of 0 is -1.642694
weight of 1 is 0.909135
weight of 2 is -5.066667
weight of 3 is -4.000000
not used!
deny
deny
warn: ignoring syscall mprotect(...)
deny
deny
deny
deny
deny
deny
weight of 0 is -1.096018
weight of 1 is 4.649093
weight of 2 is -4.355556
weight of 3 is -3.000000
used!
weight of 0 is -0.549342
weight of 1 is 8.389051
weight of 2 is -3.644444
weight of 3 is -2.000000
used!
deny
deny
weight of 0 is -0.002666
weight of 1 is 8.389061
weight of 2 is -3.644444
weight of 3 is -1.000000
used!
weight of 0 is 0.544010
weight of 1 is 8.389070
weight of 2 is -3.644444
weight of 3 is 0.000000
used!
accept
accept
weight of 0 is 1.090686
weight of 1 is 8.389089
weight of 2 is -3.644444
weight of 3 is 1.000000
used!
weight of 0 is 1.637362
weight of 1 is 8.389108
weight of 2 is -3.644444
weight of 3 is 2.000000
used!
accept
accept
accept
accept
accept
accept
accept
accept
accept
accept
accept
accept
accept
accept
accept
accept
accept
accept
weight of 0 is 1.112840
weight of 1 is 8.389101
weight of 2 is -4.711111
weight of 3 is 1.000000
not used!
accept
accept
accept
accept
accept
accept
accept
accept
weight of 0 is 0.588245
weight of 1 is 8.389015
weight of 2 is -5.600000
weight of 3 is 0.000000
not used!
accept
accept
weight of 0 is 0.087498
weight of 1 is 6.471177
weight of 2 is -6.844444
weight of 3 is -1.000000
not used!
accept
accept
deny
deny
deny
deny
deny
deny
weight of 0 is -0.444711
weight of 1 is 6.471120
weight of 2 is -6.844444
weight of 3 is -2.000000
not used!
deny
deny
weight of 0 is -0.969300
weight of 1 is 5.826817
weight of 2 is -7.555556
weight of 3 is -3.000000
not used!
weight of 0 is -1.501804
weight of 1 is 5.182458
weight of 2 is -7.733333
weight of 3 is -4.000000
not used!
deny
deny
weight of 0 is -2.026393
weight of 1 is 4.538167
weight of 2 is -7.911111
weight of 3 is -5.000000
not used!
deny
deny
weight of 0 is -2.550983
weight of 1 is 4.537994
weight of 2 is -8.444444
weight of 3 is -6.000000
not used!
accept
accept
accept
accept
weight of 0 is -3.075518
weight of 1 is 4.536953
weight of 2 is -9.511111
weight of 3 is -7.000000
not used!
deny
deny
deny
deny
deny
deny
accept
accept
deny
deny
accept
accept
deny
deny
weight of 0 is -3.576525
weight of 1 is 2.618474
weight of 2 is -10.755556
weight of 3 is -8.000000
not used!
deny
deny
deny
deny
weight of 0 is -3.075981
weight of 1 is 2.618589
weight of 2 is -10.577778
weight of 3 is -7.000000
used!
weight of 0 is -2.575437
weight of 1 is 2.618704
weight of 2 is -10.400000
weight of 3 is -6.000000
used!
deny
deny
weight of 0 is -2.074893
weight of 1 is 2.618720
weight of 2 is -10.400000
weight of 3 is -5.000000
used!
weight of 0 is -1.574348
weight of 1 is 2.618737
weight of 2 is -10.400000
weight of 3 is -4.000000
used!
deny
deny
weight of 0 is -1.073804
weight of 1 is 2.618756
weight of 2 is -10.400000
weight of 3 is -3.000000
used!
weight of 0 is -0.573260
weight of 1 is 2.618774
weight of 2 is -10.400000
weight of 3 is -2.000000
used!
deny
deny
weight of 0 is -0.072716
weight of 1 is 2.618793
weight of 2 is -10.400000
weight of 3 is -1.000000
used!
weight of 0 is 0.427829
weight of 1 is 2.618812
weight of 2 is -10.400000
weight of 3 is 0.000000
used!
weight of 0 is -0.096515
weight of 1 is 0.698148
weight of 2 is -10.422222
weight of 3 is -1.000000
not used!
deny
deny
deny
deny
deny
deny
deny
deny
deny
deny
deny
deny
weight of 0 is 0.404029
weight of 1 is 0.710606
weight of 2 is -10.422222
weight of 3 is 0.000000
used!
weight of 0 is 0.904574
weight of 1 is 0.723065
weight of 2 is -10.422222
weight of 3 is 1.000000
used!
deny
deny
accept
accept
accept
accept
weight of 0 is 0.403683
weight of 1 is -1.189656
weight of 2 is -11.400000
weight of 3 is 0.000000
not used!
weight of 0 is -0.097310
weight of 1 is -1.197925
weight of 2 is -12.555556
weight of 3 is -1.000000
not used!
weight of 0 is -0.598306
weight of 1 is -1.206293
weight of 2 is -13.577778
weight of 3 is -2.000000
not used!
weight of 0 is -1.099200
weight of 1 is -1.214576
weight of 2 is -14.733333
weight of 3 is -3.000000
not used!
deny
deny
weight of 0 is -1.600198
weight of 1 is -1.223037
weight of 2 is -14.955556
weight of 3 is -4.000000
not used!
deny
deny
weight of 0 is -2.101196
weight of 1 is -1.223139
weight of 2 is -15.933333
weight of 3 is -5.000000
not used!
deny
deny
deny
deny
weight of 0 is -2.602193
weight of 1 is -1.223162
weight of 2 is -16.600000
weight of 3 is -6.000000
not used!
deny
deny
deny
deny
deny
deny
weight of 0 is -2.101649
weight of 1 is -1.222812
weight of 2 is -15.888889
weight of 3 is -5.000000
used!
weight of 0 is -1.601104
weight of 1 is -1.222463
weight of 2 is -15.177778
weight of 3 is -4.000000
used!
deny
deny
deny
deny
weight of 0 is -1.100560
weight of 1 is -1.222453
weight of 2 is -15.177778
weight of 3 is -3.000000
used!
weight of 0 is -0.600016
weight of 1 is -1.222444
weight of 2 is -15.177778
weight of 3 is -2.000000
used!
deny
deny
weight of 0 is -0.099472
weight of 1 is -1.222425
weight of 2 is -15.177778
weight of 3 is -1.000000
used!
weight of 0 is 0.401072
weight of 1 is -1.222406
weight of 2 is -15.177778
weight of 3 is 0.000000
used!
accept
accept
weight of 0 is 0.901617
weight of 1 is -0.522679
weight of 2 is -15.177778
weight of 3 is 1.000000
used!
weight of 0 is 1.402161
weight of 1 is 0.177049
weight of 2 is -15.177778
weight of 3 is 2.000000
used!
deny
deny
accept
accept
deny
deny
accept
accept
deny
deny
deny
deny
accept
accept
accept
accept
accept
accept
deny
deny
accept
accept
deny
deny
accept
accept
accept
accept
deny
deny
accept
accept
deny
deny
deny
deny
accept
accept
deny
deny
accept
accept
deny
deny
accept
accept
accept
accept
deny
deny
accept
accept
deny
deny
accept
accept
accept
accept
deny
deny
accept
accept
deny
deny
deny
deny
accept
accept
deny
deny
accept
accept
accept
accept
weight of 0 is 1.904147
weight of 1 is 0.179561
weight of 2 is -14.622222
weight of 3 is 3.000000
used!
weight of 0 is 2.406133
weight of 1 is 0.182074
weight of 2 is -14.066667
weight of 3 is 4.000000
used!
accept
accept
accept
accept
accept
accept
accept
accept
deny
deny
accept
accept
deny
deny
deny
deny
deny
deny
accept
accept
weight of 0 is 2.930574
weight of 1 is 2.127153
weight of 2 is -13.088889
weight of 3 is 5.000000
used!
weight of 0 is 3.455014
weight of 1 is 4.072232
weight of 2 is -12.111111
weight of 3 is 6.000000
used!
accept
accept
weight of 0 is 2.908332
weight of 1 is 4.072175
weight of 2 is -12.111111
weight of 3 is 5.000000
not used!
accept
accept
accept
accept
weight of 0 is 2.361383
weight of 1 is 2.252453
weight of 2 is -12.111111
weight of 3 is 4.000000
not used!
accept
accept
weight of 0 is 1.828928
weight of 1 is 1.078152
weight of 2 is -13.355556
weight of 3 is 3.000000
not used!
deny
deny
deny
deny
deny
deny
weight of 0 is 1.328384
weight of 1 is -1.515967
weight of 2 is -13.888889
weight of 3 is 2.000000
not used!
deny
deny
deny
deny
deny
deny
deny
deny
weight of 0 is 1.875282
weight of 1 is -1.515950
weight of 2 is -12.644444
weight of 3 is 3.000000
used!
weight of 0 is 2.422179
weight of 1 is -1.515932
weight of 2 is -11.400000
weight of 3 is 4.000000
used!
accept
accept
weight of 0 is 2.969077
weight of 1 is -0.361480
weight of 2 is -10.244444
weight of 3 is 5.000000
used!
weight of 0 is 3.515975
weight of 1 is 0.792973
weight of 2 is -9.088889
weight of 3 is 6.000000
used!
deny
deny
accept
accept
weight of 0 is 4.062874
weight of 1 is 0.792984
weight of 2 is -7.844444
weight of 3 is 7.000000
used!
weight of 0 is 4.609773
weight of 1 is 0.792994
weight of 2 is -6.600000
weight of 3 is 8.000000
used!
accept
accept
accept
accept
accept
accept
accept
accept
accept
accept
accept
accept
accept
accept
accept
accept
weight of 0 is 4.109229
weight of 1 is -1.140198
weight of 2 is -6.600000
weight of 3 is 7.000000
not used!
accept
accept
accept
accept
accept
accept
accept
accept
accept
accept
weight of 0 is 3.608685
weight of 1 is -3.089646
weight of 2 is -6.600000
weight of 3 is 6.000000
not used!
accept
accept
accept
accept
accept
accept
accept
accept
accept
accept
accept
accept
accept
accept
accept
accept
accept
accept
accept
accept
weight of 0 is 3.108141
weight of 1 is -3.090398
weight of 2 is -6.600000
weight of 3 is 5.000000
not used!
accept
accept
accept
accept
deny
deny
accept
accept
accept
accept
deny
deny
weight of 0 is 2.607596
weight of 1 is -3.090417
weight of 2 is -6.600000
weight of 3 is 4.000000
not used!
accept
accept
deny
deny
weight of 0 is 2.107052
weight of 1 is -3.090431
weight of 2 is -6.600000
weight of 3 is 3.000000
not used!
accept
accept
accept
accept
weight of 0 is 1.615237
weight of 1 is -3.090432
weight of 2 is -6.600000
weight of 3 is 2.000000
not used!
weight of 0 is 1.114693
weight of 1 is -3.790070
weight of 2 is -6.600000
weight of 3 is 1.000000
not used!
accept
accept
deny
deny
accept
accept
deny
deny
accept
accept
accept
accept
accept
accept
deny
deny
accept
accept
deny
deny
deny
deny
accept
accept
deny
deny
deny
deny
weight of 0 is 0.612707
weight of 1 is -3.790113
weight of 2 is -6.755556
weight of 3 is 0.000000
not used!
accept
accept
deny
deny
weight of 0 is 1.159529
weight of 1 is -0.023235
weight of 2 is -6.044444
weight of 3 is 1.000000
used!
weight of 0 is 1.706351
weight of 1 is 3.743643
weight of 2 is -5.333333
weight of 3 is 2.000000
used!
accept
accept
accept
accept
weight of 0 is 2.253173
weight of 1 is 4.885290
weight of 2 is -5.333333
weight of 3 is 3.000000
used!
weight of 0 is 2.799995
weight of 1 is 6.026936
weight of 2 is -5.333333
weight of 3 is 4.000000
used!
accept
accept
accept
accept
weight of 0 is 2.275555
weight of 1 is 6.026887
weight of 2 is -5.422222
weight of 3 is 3.000000
not used!
accept
accept
weight of 0 is 1.775011
weight of 1 is 4.081935
weight of 2 is -5.422222
weight of 3 is 2.000000
not used!
accept
accept
weight of 0 is 1.274705
weight of 1 is 3.931533
weight of 2 is -5.422222
weight of 3 is 1.000000
not used!
accept
accept
weight of 0 is 0.772719
weight of 1 is 3.783715
weight of 2 is -5.422222
weight of 3 is 0.000000
not used!
accept
accept
accept
accept
accept
accept
weight of 0 is 0.240152
weight of 1 is 3.114585
weight of 2 is -5.577778
weight of 3 is -1.000000
not used!
weight of 0 is -0.261996
weight of 1 is 0.627994
weight of 2 is -5.666667
weight of 3 is -2.000000
not used!
deny
deny
weight of 0 is -0.786439
weight of 1 is 0.627993
weight of 2 is -5.666667
weight of 3 is -3.000000
not used!
deny
deny
deny
deny
deny
deny
weight of 0 is -0.253637
weight of 1 is 1.769339
weight of 2 is -5.666667
weight of 3 is -2.000000
used!
weight of 0 is 0.279166
weight of 1 is 2.910685
weight of 2 is -5.666667
weight of 3 is -1.000000
used!
accept
accept
accept
accept
weight of 0 is 0.811969
weight of 1 is 2.910706
weight of 2 is -5.488889
weight of 3 is 0.000000
used!
weight of 0 is 1.344772
weight of 1 is 2.910727
weight of 2 is -5.311111
weight of 3 is 1.000000
used!
accept
accept
accept
accept
accept
accept
accept
accept
accept
accept
accept
accept
accept
accept
accept
accept
accept
accept
accept
accept
accept
accept
accept
accept
accept
accept
accept
accept
accept
accept
accept
accept
weight of 0 is 0.797871
weight of 1 is 2.910671
weight of 2 is -5.488889
weight of 3 is 0.000000
not used!
accept
accept
weight of 0 is 0.297327
weight of 1 is -0.862684
weight of 2 is -6.733333
weight of 3 is -1.000000
not used!
deny
deny
weight of 0 is -0.203217
weight of 1 is -4.635882
weight of 2 is -6.733333
weight of 3 is -2.000000
not used!
deny
deny
weight of 0 is -0.703761
weight of 1 is -4.654800
weight of 2 is -6.733333
weight of 3 is -3.000000
not used!
deny
deny
weight of 0 is -0.170949
weight of 1 is -4.654744
weight of 2 is -6.733333
weight of 3 is -2.000000
used!
weight of 0 is 0.361864
weight of 1 is -4.654688
weight of 2 is -6.733333
weight of 3 is -1.000000
used!
deny
deny
weight of 0 is 0.894676
weight of 1 is -4.654666
weight of 2 is -6.555556
weight of 3 is 0.000000
used!
weight of 0 is 1.427489
weight of 1 is -4.654645
weight of 2 is -6.377778
weight of 3 is 1.000000
used!
weight of 0 is 0.926945
weight of 1 is -4.671498
weight of 2 is -6.377778
weight of 3 is 0.000000
not used!
deny
deny
deny
deny
weight of 0 is 1.459757
weight of 1 is -4.671476
weight of 2 is -6.022222
weight of 3 is 1.000000
used!
weight of 0 is 1.992570
weight of 1 is -4.671455
weight of 2 is -5.666667
weight of 3 is 2.000000
used!
accept
accept
weight of 0 is 2.525383
weight of 1 is -4.671441
weight of 2 is -5.666667
weight of 3 is 3.000000
used!
weight of 0 is 3.058196
weight of 1 is -4.671427
weight of 2 is -5.666667
weight of 3 is 4.000000
used!
accept
accept
deny
deny
accept
accept
weight of 0 is 2.511310
weight of 1 is -8.443565
weight of 2 is -5.844444
weight of 3 is 3.000000
not used!
weight of 0 is 2.010766
weight of 1 is -12.215659
weight of 2 is -5.844444
weight of 3 is 2.000000
not used!
accept
accept
deny
deny
accept
accept
deny
deny
accept
accept
accept
accept
deny
deny
deny
deny
accept
accept
deny
deny
deny
deny
accept
accept
deny
deny
weight of 0 is 2.557596
weight of 1 is -11.074954
weight of 2 is -5.844444
weight of 3 is 3.000000
used!
weight of 0 is 3.104427
weight of 1 is -9.934249
weight of 2 is -5.844444
weight of 3 is 4.000000
used!
accept
accept
weight of 0 is 3.651258
weight of 1 is -8.793603
weight of 2 is -5.844444
weight of 3 is 5.000000
used!
weight of 0 is 4.198089
weight of 1 is -7.652957
weight of 2 is -5.844444
weight of 3 is 6.000000
used!
accept
accept
accept
accept
accept
accept
weight of 0 is 3.651180
weight of 1 is -7.653013
weight of 2 is -5.844444
weight of 3 is 5.000000
not used!
accept
accept
weight of 0 is 3.104270
weight of 1 is -7.653051
weight of 2 is -5.844444
weight of 3 is 4.000000
not used!
deny
deny
deny
deny
weight of 0 is 2.603726
weight of 1 is -7.653069
weight of 2 is -5.844444
weight of 3 is 3.000000
not used!
deny
deny
deny
deny
weight of 0 is 2.103182
weight of 1 is -7.656432
weight of 2 is -5.844444
weight of 3 is 2.000000
not used!
accept
accept
weight of 0 is 2.636003
weight of 1 is -6.515932
weight of 2 is -5.844444
weight of 3 is 3.000000
used!
weight of 0 is 3.168824
weight of 1 is -5.375431
weight of 2 is -5.844444
weight of 3 is 4.000000
used!
deny
deny
weight of 0 is 3.715657
weight of 1 is -4.234874
weight of 2 is -5.844444
weight of 3 is 5.000000
used!
weight of 0 is 4.262490
weight of 1 is -3.094317
weight of 2 is -5.844444
weight of 3 is 6.000000
used!
accept
accept
weight of 0 is 4.809323
weight of 1 is -1.953798
weight of 2 is -5.844444
weight of 3 is 7.000000
used!
weight of 0 is 5.356156
weight of 1 is -0.813278
weight of 2 is -5.844444
weight of 3 is 8.000000
used!
weight of 0 is 4.855612
weight of 1 is -0.813283
weight of 2 is -5.844444
weight of 3 is 7.000000
not used!
accept
accept
weight of 0 is 4.355068
weight of 1 is -0.813290
weight of 2 is -5.844444
weight of 3 is 6.000000
not used!
accept
accept
accept
accept
accept
accept
accept
accept
weight of 0 is 3.854523
weight of 1 is -0.813342
weight of 2 is -5.844444
weight of 3 is 5.000000
not used!
accept
accept
accept
accept
accept
accept
accept
accept
weight of 0 is 3.353979
weight of 1 is -0.813346
weight of 2 is -5.844444
weight of 3 is 4.000000
not used!
accept
accept
accept
accept
accept
accept
weight of 0 is 2.853435
weight of 1 is -0.813403
weight of 2 is -5.844444
weight of 3 is 3.000000
not used!
accept
accept
accept
accept
accept
accept
weight of 0 is 2.352891
weight of 1 is -0.813412
weight of 2 is -5.844444
weight of 3 is 2.000000
not used!
accept
accept
accept
accept
weight of 0 is 1.820094
weight of 1 is -0.813426
weight of 2 is -5.844444
weight of 3 is 1.000000
not used!
accept
accept
accept
accept
accept
accept
accept
accept
accept
accept
accept
accept
accept
accept
accept
accept
accept
accept
accept
accept
accept
accept
accept
accept
accept
accept
accept
accept
accept
accept
accept
accept
accept
accept
accept
accept
accept
accept
accept
accept
accept
accept
deny
deny
accept
accept
accept
accept
accept
accept
accept
accept
deny
deny
accept
accept
accept
accept
accept
accept
accept
accept
accept
accept
accept
accept
accept
accept
accept
accept
deny
deny
accept
accept
accept
accept
deny
deny
accept
accept
accept
accept
accept
accept
deny
deny
accept
accept
accept
accept
accept
accept
accept
accept
accept
accept
accept
accept
accept
accept
accept
accept
accept
accept
accept
accept
accept
accept
accept
accept
accept
accept
accept
accept
weight of 0 is 1.273263
weight of 1 is -0.813452
weight of 2 is -6.377778
weight of 3 is 0.000000
not used!
accept
accept
accept
accept
accept
accept
accept
accept
accept
accept
accept
accept
accept
accept
accept
accept
accept
accept
accept
accept
accept
accept
accept
accept
accept
accept
accept
accept
deny
deny
deny
deny
deny
deny
weight of 0 is 1.820117
weight of 1 is 0.325499
weight of 2 is -5.666667
weight of 3 is 1.000000
used!
weight of 0 is 2.366971
weight of 1 is 1.464449
weight of 2 is -4.955556
weight of 3 is 2.000000
used!
accept
accept
weight of 0 is 2.913825
weight of 1 is 1.464468
weight of 2 is -4.244444
weight of 3 is 3.000000
used!
weight of 0 is 3.460679
weight of 1 is 1.464487
weight of 2 is -3.533333
weight of 3 is 4.000000
used!
weight of 0 is 2.927853
weight of 1 is 0.324198
weight of 2 is -3.888889
weight of 3 is 3.000000
not used!
accept
accept
accept
accept
accept
accept
accept
accept
accept
accept
accept
accept
accept
accept
accept
accept
accept
accept
accept
accept
accept
accept
accept
accept
accept
accept
accept
accept
accept
accept
accept
accept
accept
accept
accept
accept
accept
accept
accept
accept
accept
accept
accept
accept
accept
accept
accept
accept
accept
accept
accept
accept
accept
accept
accept
accept
accept
accept
accept
accept
accept
accept
weight of 0 is 2.395012
weight of 1 is 0.324141
weight of 2 is -4.066667
weight of 3 is 2.000000
not used!
accept
accept
accept
accept
weight of 0 is 1.848171
weight of 1 is -0.815401
weight of 2 is -4.066667
weight of 3 is 1.000000
not used!
accept
accept
accept
accept
accept
accept
accept
accept
weight of 0 is 1.301328
weight of 1 is -1.954793
weight of 2 is -4.066667
weight of 3 is 0.000000
not used!
weight of 0 is 0.754483
weight of 1 is -1.954890
weight of 2 is -4.244444
weight of 3 is -1.000000
not used!
deny
deny
deny
deny
deny
deny
deny
deny
weight of 0 is 1.287363
weight of 1 is -1.954833
weight of 2 is -4.066667
weight of 3 is 0.000000
used!
weight of 0 is 1.820243
weight of 1 is -1.954777
weight of 2 is -3.888889
weight of 3 is 1.000000
used!
deny
deny
deny
deny
weight of 0 is 2.353123
weight of 1 is -0.816648
weight of 2 is -3.533333
weight of 3 is 2.000000
used!
weight of 0 is 2.886003
weight of 1 is 0.321481
weight of 2 is -3.177778
weight of 3 is 3.000000
used!
accept
accept
weight of 0 is 3.418883
weight of 1 is 0.321495
weight of 2 is -3.177778
weight of 3 is 4.000000
used!
weight of 0 is 3.951763
weight of 1 is 0.321509
weight of 2 is -3.177778
weight of 3 is 5.000000
used!
accept
accept
weight of 0 is 4.498625
weight of 1 is 1.459659
weight of 2 is -3.177778
weight of 3 is 6.000000
used!
weight of 0 is 5.045488
weight of 1 is 2.597809
weight of 2 is -3.177778
weight of 3 is 7.000000
used!
accept
accept
accept
accept
accept
accept
accept
accept
accept
accept
accept
accept
accept
accept
accept
accept
accept
accept
accept
accept
accept
accept
accept
accept
accept
accept
accept
accept
accept
accept
accept
accept
accept
accept
accept
accept
accept
accept
accept
accept
accept
accept
accept
accept
accept
accept
accept
accept
accept
accept
accept
accept
accept
accept
weight of 0 is 4.498632
weight of 1 is 1.458924
weight of 2 is -3.177778
weight of 3 is 6.000000
not used!
accept
accept
accept
accept
accept
accept
accept
accept
accept
accept
accept
accept
accept
accept
accept
accept
accept
accept
accept
accept
accept
accept
accept
accept
accept
accept
weight of 0 is 3.965762
weight of 1 is 1.458867
weight of 2 is -3.177778
weight of 3 is 5.000000
not used!
accept
accept
accept
accept
accept
accept
weight of 0 is 3.418903
weight of 1 is 0.320220
weight of 2 is -3.888889
weight of 3 is 4.000000
not used!
accept
accept
accept
accept
accept
accept
accept
accept
accept
accept
accept
accept
accept
accept
accept
accept
accept
accept
accept
accept
accept
accept
accept
accept
accept
accept
accept
accept
accept
accept
accept
accept
accept
accept
accept
accept
accept
accept
accept
accept
accept
accept
accept
accept
accept
accept
accept
accept
accept
accept
accept
accept
accept
accept
accept
accept
accept
accept
accept
accept
accept
accept
accept
accept
accept
accept
accept
accept
weight of 0 is 2.872037
weight of 1 is -0.817834
weight of 2 is -3.888889
weight of 3 is 3.000000
not used!
accept
accept
accept
accept
accept
accept
accept
accept
accept
accept
accept
accept
accept
accept
deny
deny
accept
accept
deny
deny
accept
accept
accept
accept
weight of 0 is 2.325170
weight of 1 is -1.955782
weight of 2 is -4.422222
weight of 3 is 2.000000
not used!
deny
deny
deny
deny
accept
accept
accept
accept
deny
deny
accept
accept
accept
accept
accept
accept
deny
deny
deny
deny
accept
accept
accept
accept
weight of 0 is 1.778300
weight of 1 is -3.093751
weight of 2 is -5.133333
weight of 3 is 1.000000
not used!
deny
deny
deny
deny
accept
accept
deny
deny
deny
deny
deny
deny
deny
deny
accept
accept
deny
deny
deny
deny
weight of 0 is 1.231419
weight of 1 is -4.232314
weight of 2 is -5.311111
weight of 3 is 0.000000
not used!
deny
deny
deny
deny
weight of 0 is 0.684530
weight of 1 is -5.371479
weight of 2 is -5.488889
weight of 3 is -1.000000
not used!
deny
deny
deny
deny
deny
deny
deny
deny
deny
deny
deny
deny
deny
deny
deny
deny
deny
deny
deny
deny
deny
deny
deny
deny
weight of 0 is 0.137640
weight of 1 is -6.510490
weight of 2 is -5.488889
weight of 3 is -2.000000
not used!
weight of 0 is -0.409252
weight of 1 is -6.510549
weight of 2 is -5.666667
weight of 3 is -3.000000
not used!
deny
deny
deny
deny
deny
deny
weight of 0 is -0.956144
weight of 1 is -7.649683
weight of 2 is -6.377778
weight of 3 is -4.000000
not used!
deny
deny
weight of 0 is -1.503038
weight of 1 is -7.649732
weight of 2 is -6.555556
weight of 3 is -5.000000
not used!
deny
deny
deny
deny
weight of 0 is -2.049932
weight of 1 is -7.649852
weight of 2 is -7.266667
weight of 3 is -6.000000
not used!
deny
deny
weight of 0 is -2.596828
weight of 1 is -7.649901
weight of 2 is -7.444444
weight of 3 is -7.000000
not used!
deny
deny
deny
deny
deny
deny
weight of 0 is -3.143725
weight of 1 is -8.789317
weight of 2 is -8.155556
weight of 3 is -8.000000
not used!
deny
deny
deny
deny
deny
deny
weight of 0 is -3.676504
weight of 1 is -9.938414
weight of 2 is -9.488889
weight of 3 is -9.000000
not used!
deny
deny
deny
deny
weight of 0 is -3.144025
weight of 1 is -7.395927
weight of 2 is -9.488889
weight of 3 is -8.000000
used!
weight of 0 is -2.611547
weight of 1 is -4.853439
weight of 2 is -9.488889
weight of 3 is -7.000000
used!
weight of 0 is -3.144079
weight of 1 is -7.457196
weight of 2 is -10.111111
weight of 3 is -8.000000
not used!
deny
deny
deny
deny
deny
deny
deny
deny
weight of 0 is -3.644623
weight of 1 is -10.060895
weight of 2 is -10.111111
weight of 3 is -9.000000
not used!
deny
deny
deny
deny
deny
deny
deny
deny
deny
deny
weight of 0 is -4.177378
weight of 1 is -12.682784
weight of 2 is -10.577778
weight of 3 is -10.000000
not used!
deny
deny
deny
deny
deny
deny
deny
deny
deny
deny
deny
deny
deny
deny
deny
deny
deny
deny
weight of 0 is -3.676135
weight of 1 is -10.119556
weight of 2 is -9.511111
weight of 3 is -9.000000
used!
weight of 0 is -3.174892
weight of 1 is -7.556327
weight of 2 is -8.444444
weight of 3 is -8.000000
used!
deny
deny
deny
deny
deny
deny
deny
deny
deny
deny
deny
deny
weight of 0 is -2.642162
weight of 1 is -7.541455
weight of 2 is -8.377778
weight of 3 is -7.000000
used!
weight of 0 is -2.109431
weight of 1 is -7.526583
weight of 2 is -8.311111
weight of 3 is -6.000000
used!
deny
deny
deny
deny
deny
deny
deny
deny
weight of 0 is -2.610668
weight of 1 is -7.582944
weight of 2 is -9.377778
weight of 3 is -7.000000
not used!
deny
deny
deny
deny
deny
deny
deny
deny
deny
deny
deny
deny
deny
deny
deny
deny
deny
deny
deny
deny
weight of 0 is -3.143148
weight of 1 is -9.157067
weight of 2 is -9.377778
weight of 3 is -8.000000
not used!
deny
deny
deny
deny
deny
deny
weight of 0 is -3.675630
weight of 1 is -11.756730
weight of 2 is -10.711111
weight of 3 is -9.000000
not used!
deny
deny
deny
deny
weight of 0 is -4.208129
weight of 1 is -11.758147
weight of 2 is -11.244444
weight of 3 is -10.000000
not used!
deny
deny
deny
deny
weight of 0 is -3.675396
weight of 1 is -11.742415
weight of 2 is -10.377778
weight of 3 is -9.000000
used!
weight of 0 is -3.142662
weight of 1 is -11.726682
weight of 2 is -9.511111
weight of 3 is -8.000000
used!
deny
deny
deny
deny
deny
deny
deny
deny
weight of 0 is -3.643206
weight of 1 is -11.726764
weight of 2 is -10.400000
weight of 3 is -9.000000
not used!
deny
deny
deny
deny
weight of 0 is -4.143750
weight of 1 is -11.726792
weight of 2 is -10.577778
weight of 3 is -10.000000
not used!
deny
deny
weight of 0 is -4.644294
weight of 1 is -11.727372
weight of 2 is -10.577778
weight of 3 is -11.000000
not used!
deny
deny
weight of 0 is -4.111561
weight of 1 is -11.727369
weight of 2 is -10.577778
weight of 3 is -10.000000
used!
weight of 0 is -3.578827
weight of 1 is -11.727365
weight of 2 is -10.577778
weight of 3 is -9.000000
used!
deny
deny
weight of 0 is -3.077592
weight of 1 is -9.163089
weight of 2 is -10.577778
weight of 3 is -8.000000
used!
weight of 0 is -2.576357
weight of 1 is -6.598813
weight of 2 is -10.577778
weight of 3 is -7.000000
used!
deny
deny
deny
deny
weight of 0 is -3.076901
weight of 1 is -6.599189
weight of 2 is -10.577778
weight of 3 is -8.000000
not used!
deny
deny
weight of 0 is -3.577445
weight of 1 is -6.599790
weight of 2 is -10.577778
weight of 3 is -9.000000
not used!
deny
deny
deny
deny
deny
deny
weight of 0 is -3.044545
weight of 1 is -6.565917
weight of 2 is -10.400000
weight of 3 is -8.000000
used!
weight of 0 is -2.511643
weight of 1 is -6.532043
weight of 2 is -10.222222
weight of 3 is -7.000000
used!
deny
deny
weight of 0 is -3.044142
weight of 1 is -9.135022
weight of 2 is -10.311111
weight of 3 is -8.000000
not used!
weight of 0 is -3.544686
weight of 1 is -11.735770
weight of 2 is -11.377778
weight of 3 is -9.000000
not used!
deny
deny
deny
deny
weight of 0 is -3.011951
weight of 1 is -11.726938
weight of 2 is -10.955556
weight of 3 is -8.000000
used!
weight of 0 is -2.479217
weight of 1 is -11.718106
weight of 2 is -10.533333
weight of 3 is -7.000000
used!
deny
deny
weight of 0 is -2.979761
weight of 1 is -11.718148
weight of 2 is -10.533333
weight of 3 is -8.000000
not used!
deny
deny
deny
deny
deny
deny
deny
deny
deny
deny
deny
deny
deny
deny
deny
deny
weight of 0 is -3.512661
weight of 1 is -12.855455
weight of 2 is -10.711111
weight of 3 is -9.000000
not used!
deny
deny
weight of 0 is -4.059530
weight of 1 is -13.992844
weight of 2 is -11.422222
weight of 3 is -10.000000
not used!
deny
deny
deny
deny
deny
deny
weight of 0 is -4.606400
weight of 1 is -15.130264
weight of 2 is -11.422222
weight of 3 is -11.000000
not used!
deny
deny
deny
deny
weight of 0 is -5.139185
weight of 1 is -16.276940
weight of 2 is -11.777778
weight of 3 is -12.000000
not used!
deny
deny
weight of 0 is -4.606286
weight of 1 is -16.243169
weight of 2 is -11.777778
weight of 3 is -11.000000
used!
weight of 0 is -4.073387
weight of 1 is -16.209398
weight of 2 is -11.777778
weight of 3 is -10.000000
used!
weight of 0 is -4.606000
weight of 1 is -16.223414
weight of 2 is -12.044444
weight of 3 is -11.000000
not used!
deny
deny
deny
deny
deny
deny
weight of 0 is -5.138719
weight of 1 is -16.223415
weight of 2 is -12.044444
weight of 3 is -12.000000
not used!
deny
deny
deny
deny
weight of 0 is -5.630757
weight of 1 is -16.224828
weight of 2 is -12.133333
weight of 3 is -13.000000
not used!
deny
deny
weight of 0 is -6.122570
weight of 1 is -16.226493
weight of 2 is -13.111111
weight of 3 is -14.000000
not used!
deny
deny
deny
deny
deny
deny
deny
deny
deny
deny
deny
deny
deny
deny
weight of 0 is -6.655204
weight of 1 is -16.238978
weight of 2 is -13.200000
weight of 3 is -15.000000
not used!
weight of 0 is -7.187924
weight of 1 is -16.243901
weight of 2 is -13.288889
weight of 3 is -16.000000
not used!
deny
deny
weight of 0 is -7.701065
weight of 1 is -17.211965
weight of 2 is -13.822222
weight of 3 is -17.000000
not used!
deny
deny
weight of 0 is -8.225620
weight of 1 is -18.141481
weight of 2 is -14.088889
weight of 3 is -18.000000
not used!
weight of 0 is -8.758104
weight of 1 is -18.786388
weight of 2 is -14.088889
weight of 3 is -19.000000
not used!
deny
deny
deny
deny
weight of 0 is -9.290893
weight of 1 is -18.810840
weight of 2 is -14.666667
weight of 3 is -20.000000
not used!
deny
deny
weight of 0 is -9.823545
weight of 1 is -18.821931
weight of 2 is -14.755556
weight of 3 is -21.000000
not used!
deny
deny
deny
deny
deny
deny
deny
deny
deny
deny
weight of 0 is -9.322299
weight of 1 is -16.257946
weight of 2 is -14.755556
weight of 3 is -20.000000
used!
weight of 0 is -8.821053
weight of 1 is -13.693961
weight of 2 is -14.755556
weight of 3 is -19.000000
used!
weight of 0 is -9.334206
weight of 1 is -13.694496
weight of 2 is -15.111111
weight of 3 is -20.000000
not used!
deny
deny
deny
deny
deny
deny
deny
deny
weight of 0 is -8.801304
weight of 1 is -13.659148
weight of 2 is -14.933333
weight of 3 is -19.000000
used!
weight of 0 is -8.268403
weight of 1 is -13.623800
weight of 2 is -14.755556
weight of 3 is -18.000000
used!
deny
deny
deny
deny
deny
deny
weight of 0 is -8.801174
weight of 1 is -13.623800
weight of 2 is -14.755556
weight of 3 is -19.000000
not used!
deny
deny
deny
deny
deny
deny
deny
deny
deny
deny
deny
deny
deny
deny
deny
deny
deny
deny
deny
deny
deny
deny
deny
deny
deny
deny
deny
deny
deny
deny
weight of 0 is -8.268274
weight of 1 is -10.976511
weight of 2 is -14.755556
weight of 3 is -18.000000
used!
weight of 0 is -7.735374
weight of 1 is -8.329221
weight of 2 is -14.755556
weight of 3 is -17.000000
used!
deny
deny
deny
deny
deny
deny
weight of 0 is -7.202625
weight of 1 is -8.316435
weight of 2 is -14.444444
weight of 3 is -16.000000
used!
weight of 0 is -6.669876
weight of 1 is -8.303650
weight of 2 is -14.133333
weight of 3 is -15.000000
used!
deny
deny
deny
deny
weight of 0 is -6.168636
weight of 1 is -5.749255
weight of 2 is -12.888889
weight of 3 is -14.000000
used!
weight of 0 is -5.667395
weight of 1 is -3.194860
weight of 2 is -11.644444
weight of 3 is -13.000000
used!
deny
deny
deny
deny
deny
deny
deny
deny
deny
deny
deny
deny
deny
deny
deny
deny
deny
deny
deny
deny
deny
deny
deny
deny
deny
deny
deny
deny
deny
deny
deny
deny
deny
deny
deny
deny
deny
deny
deny
deny
deny
deny
deny
deny
deny
deny
deny
deny
deny
deny
deny
deny
deny
deny
weight of 0 is -5.134493
weight of 1 is -3.160283
weight of 2 is -11.466667
weight of 3 is -12.000000
used!
weight of 0 is -4.601590
weight of 1 is -3.125706
weight of 2 is -11.288889
weight of 3 is -11.000000
used!
deny
deny
deny
deny
deny
deny
weight of 0 is -4.100349
weight of 1 is -0.560411
weight of 2 is -10.222222
weight of 3 is -10.000000
used!
weight of 0 is -3.599108
weight of 1 is 2.004884
weight of 2 is -9.155556
weight of 3 is -9.000000
used!
deny
deny
deny
deny
deny
deny
deny
deny
deny
deny
deny
deny
deny
deny
deny
deny
deny
deny
deny
deny
deny
deny
deny
deny
deny
deny
deny
deny
deny
deny
weight of 0 is -3.066207
weight of 1 is 2.686449
weight of 2 is -9.155556
weight of 3 is -8.000000
used!
weight of 0 is -2.533307
weight of 1 is 3.368014
weight of 2 is -9.155556
weight of 3 is -7.000000
used!
deny
deny
deny
deny
deny
deny
deny
deny
deny
deny
deny
deny
deny
deny
weight of 0 is -2.000547
weight of 1 is 3.371555
weight of 2 is -8.688889
weight of 3 is -6.000000
used!
weight of 0 is -1.467787
weight of 1 is 3.375097
weight of 2 is -8.222222
weight of 3 is -5.000000
used!
deny
deny
deny
deny
deny
deny
accept
accept
deny
deny
deny
deny
deny
deny
deny
deny
deny
deny
deny
deny
deny
deny
deny
deny
deny
deny
deny
deny
weight of 0 is -0.934884
weight of 1 is 3.408043
weight of 2 is -8.044444
weight of 3 is -4.000000
used!
weight of 0 is -0.401981
weight of 1 is 3.440989
weight of 2 is -7.866667
weight of 3 is -3.000000
used!
deny
deny
deny
deny
deny
deny
deny
deny
deny
deny
deny
deny
deny
deny
deny
deny
weight of 0 is 0.130528
weight of 1 is 3.449994
weight of 2 is -6.977778
weight of 3 is -2.000000
used!
weight of 0 is 0.663038
weight of 1 is 3.458999
weight of 2 is -6.088889
weight of 3 is -1.000000
used!
deny
deny
deny
deny
deny
deny
deny
deny
accept
accept
accept
accept
deny
deny
deny
deny
deny
deny
deny
deny
accept
accept
accept
accept
deny
deny
deny
deny
deny
deny
weight of 0 is 1.195939
weight of 1 is 3.482990
weight of 2 is -6.088889
weight of 3 is 0.000000
used!
weight of 0 is 1.728840
weight of 1 is 3.506981
weight of 2 is -6.088889
weight of 3 is 1.000000
used!
accept
accept
weight of 0 is 2.261608
weight of 1 is 3.521075
weight of 2 is -5.066667
weight of 3 is 2.000000
used!
weight of 0 is 2.794377
weight of 1 is 3.535168
weight of 2 is -4.044444
weight of 3 is 3.000000
used!
accept
accept
accept
accept
accept
accept
accept
accept
accept
accept
accept
accept
accept
accept
accept
accept
weight of 0 is 3.327280
weight of 1 is 3.548721
weight of 2 is -4.044444
weight of 3 is 4.000000
used!
weight of 0 is 3.860184
weight of 1 is 3.562274
weight of 2 is -4.044444
weight of 3 is 5.000000
used!
accept
accept
accept
accept
accept
accept
accept
accept
accept
accept
accept
accept
accept
accept
accept
accept
accept
accept
accept
accept
accept
accept
accept
accept
accept
accept
accept
accept
accept
accept
accept
accept
accept
accept
accept
accept
accept
accept
accept
accept
accept
accept
accept
accept
accept
accept
accept
accept
accept
accept
accept
accept
accept
accept
accept
accept
accept
accept
accept
accept
accept
accept
accept
accept
accept
accept
accept
accept
accept
accept
accept
accept
accept
accept
accept
accept
accept
accept
accept
accept
accept
accept
accept
accept
accept
accept
accept
accept
accept
accept
accept
accept
accept
accept
accept
accept
accept
accept
accept
accept
accept
accept
accept
accept
accept
accept
accept
accept
accept
accept
accept
accept
accept
accept
accept
accept
accept
accept
accept
accept
accept
accept
accept
accept
accept
accept
accept
accept
accept
accept
accept
accept
accept
accept
accept
accept
accept
accept
accept
accept
accept
accept
accept
accept
accept
accept
accept
accept
accept
accept
accept
accept
accept
accept
accept
accept
accept
accept
accept
accept
accept
accept
accept
accept
accept
accept
accept
accept
accept
accept
accept
accept
accept
accept
accept
accept
accept
accept
weight of 0 is 3.358935
weight of 1 is 0.995449
weight of 2 is -4.044444
weight of 3 is 4.000000
not used!
accept
accept
accept
accept
accept
accept
accept
accept
accept
accept
accept
accept
accept
accept
accept
accept
accept
accept
accept
accept
accept
accept
weight of 0 is 2.857699
weight of 1 is -1.571690
weight of 2 is -4.933333
weight of 3 is 3.000000
not used!
weight of 0 is 2.325207
weight of 1 is -4.116344
weight of 2 is -5.200000
weight of 3 is 2.000000
not used!
deny
deny
accept
accept
weight of 0 is 1.823959
weight of 1 is -6.682641
weight of 2 is -5.377778
weight of 3 is 1.000000
not used!
accept
accept
weight of 0 is 1.291474
weight of 1 is -9.225706
weight of 2 is -5.555556
weight of 3 is 0.000000
not used!
deny
deny
weight of 0 is 0.758706
weight of 1 is -9.238784
weight of 2 is -5.577778
weight of 3 is -1.000000
not used!
weight of 0 is 0.257461
weight of 1 is -11.805254
weight of 2 is -5.933333
weight of 3 is -2.000000
not used!
weight of 0 is -0.275054
weight of 1 is -14.353202
weight of 2 is -6.200000
weight of 3 is -3.000000
not used!
weight of 0 is -0.807825
weight of 1 is -14.371874
weight of 2 is -6.288889
weight of 3 is -4.000000
not used!
deny
deny
weight of 0 is -1.340302
weight of 1 is -14.396297
weight of 2 is -6.466667
weight of 3 is -5.000000
not used!
weight of 0 is -1.872890
weight of 1 is -14.407993
weight of 2 is -7.444444
weight of 3 is -6.000000
not used!
deny
deny
deny
deny
weight of 0 is -2.364704
weight of 1 is -14.411029
weight of 2 is -8.422222
weight of 3 is -7.000000
not used!
deny
deny
deny
deny
deny
deny
weight of 0 is -2.897363
weight of 1 is -14.430908
weight of 2 is -9.755556
weight of 3 is -8.000000
not used!
weight of 0 is -3.398611
weight of 1 is -16.990370
weight of 2 is -9.933333
weight of 3 is -9.000000
not used!
deny
deny
weight of 0 is -3.931103
weight of 1 is -19.533899
weight of 2 is -11.088889
weight of 3 is -10.000000
not used!
deny
deny
weight of 0 is -4.463623
weight of 1 is -19.536274
weight of 2 is -11.355556
weight of 3 is -11.000000
not used!
weight of 0 is -4.996402
weight of 1 is -19.559515
weight of 2 is -11.755556
weight of 3 is -12.000000
not used!
deny
deny
weight of 0 is -5.528927
weight of 1 is -19.580138
weight of 2 is -12.555556
weight of 3 is -13.000000
not used!
deny
deny
weight of 0 is -6.020939
weight of 1 is -22.880008
weight of 2 is -13.622222
weight of 3 is -14.000000
not used!
deny
deny
weight of 0 is -6.553421
weight of 1 is -26.174073
weight of 2 is -14.511111
weight of 3 is -15.000000
not used!
weight of 0 is -7.085919
weight of 1 is -26.175434
weight of 2 is -14.600000
weight of 3 is -16.000000
not used!
warn: ignoring syscall mprotect(...)
deny
deny
weight of 0 is -7.618537
weight of 1 is -26.187423
weight of 2 is -14.866667
weight of 3 is -17.000000
not used!
weight of 0 is -8.151309
weight of 1 is -26.197944
weight of 2 is -15.177778
weight of 3 is -18.000000
not used!
weight of 0 is -8.652554
weight of 1 is -28.764801
weight of 2 is -16.422222
weight of 3 is -19.000000
not used!
deny
deny
weight of 0 is -9.185068
weight of 1 is -31.310403
weight of 2 is -17.755556
weight of 3 is -20.000000
not used!
deny
deny
weight of 0 is -9.717849
weight of 1 is -31.334461
weight of 2 is -18.422222
weight of 3 is -21.000000
not used!
weight of 0 is -10.250411
weight of 1 is -31.352359
weight of 2 is -19.577778
weight of 3 is -22.000000
not used!
weight of 0 is -10.783185
weight of 1 is -31.367596
weight of 2 is -20.822222
weight of 3 is -23.000000
not used!
weight of 0 is -11.315670
weight of 1 is -31.391380
weight of 2 is -22.155556
weight of 3 is -24.000000
not used!
weight of 0 is -11.848174
weight of 1 is -31.393005
weight of 2 is -22.777778
weight of 3 is -25.000000
not used!
deny
deny
weight of 0 is -12.380964
weight of 1 is -31.418542
weight of 2 is -23.800000
weight of 3 is -26.000000
not used!
weight of 0 is -12.913632
weight of 1 is -31.428535
weight of 2 is -24.955556
weight of 3 is -27.000000
not used!
weight of 0 is -13.446407
weight of 1 is -31.435236
weight of 2 is -25.644444
weight of 3 is -28.000000
not used!
weight of 0 is -13.947650
weight of 1 is -34.002515
weight of 2 is -26.533333
weight of 3 is -29.000000
not used!
weight of 0 is -14.480172
weight of 1 is -36.548987
weight of 2 is -27.866667
weight of 3 is -30.000000
not used!
deny
deny
deny
deny
weight of 0 is -15.012949
weight of 1 is -36.569949
weight of 2 is -28.844444
weight of 3 is -31.000000
not used!
deny
deny
weight of 0 is -15.545561
weight of 1 is -36.584075
weight of 2 is -30.000000
weight of 3 is -32.000000
not used!
deny
deny
weight of 0 is -16.078343
weight of 1 is -36.595817
weight of 2 is -31.133333
weight of 3 is -33.000000
not used!
deny
deny
weight of 0 is -16.579599
weight of 1 is -39.162080
weight of 2 is -31.133333
weight of 3 is -34.000000
not used!
weight of 0 is -17.080903
weight of 1 is -39.165939
weight of 2 is -31.666667
weight of 3 is -35.000000
not used!
weight of 0 is -17.613416
weight of 1 is -41.706253
weight of 2 is -33.000000
weight of 3 is -36.000000
not used!
weight of 0 is -18.146196
weight of 1 is -41.730286
weight of 2 is -33.222222
weight of 3 is -37.000000
not used!
weight of 0 is -18.678743
weight of 1 is -41.749281
weight of 2 is -33.311111
weight of 3 is -38.000000
not used!
deny
deny
weight of 0 is -19.211529
weight of 1 is -41.766683
weight of 2 is -33.777778
weight of 3 is -39.000000
not used!
weight of 0 is -19.712767
weight of 1 is -44.335228
weight of 2 is -33.955556
weight of 3 is -40.000000
not used!
weight of 0 is -20.245248
weight of 1 is -46.878316
weight of 2 is -34.488889
weight of 3 is -41.000000
not used!
weight of 0 is -20.777731
weight of 1 is -46.878930
weight of 2 is -34.577778
weight of 3 is -42.000000
not used!
deny
deny
weight of 0 is -21.310232
weight of 1 is -46.880448
weight of 2 is -35.733333
weight of 3 is -43.000000
not used!
deny
deny
weight of 0 is -21.843024
weight of 1 is -46.889667
weight of 2 is -36.133333
weight of 3 is -44.000000
not used!
weight of 0 is -22.375701
weight of 1 is -46.898924
weight of 2 is -36.933333
weight of 3 is -45.000000
not used!
weight of 0 is -22.908194
weight of 1 is -46.916210
weight of 2 is -37.555556
weight of 3 is -46.000000
not used!
deny
deny
weight of 0 is -23.440717
weight of 1 is -46.918721
weight of 2 is -37.644444
weight of 3 is -47.000000
not used!
deny
deny
weight of 0 is -23.973408
weight of 1 is -46.934624
weight of 2 is -38.444444
weight of 3 is -48.000000
not used!
deny
deny
weight of 0 is -24.506146
weight of 1 is -46.936348
weight of 2 is -38.888889
weight of 3 is -49.000000
not used!
deny
deny
deny
deny
weight of 0 is -25.038764
weight of 1 is -46.948187
weight of 2 is -40.222222
weight of 3 is -50.000000
not used!
deny
deny
deny
deny
deny
deny
weight of 0 is -24.514207
weight of 1 is -46.307522
weight of 2 is -40.044444
weight of 3 is -49.000000
used!
weight of 0 is -23.989650
weight of 1 is -45.666857
weight of 2 is -39.866667
weight of 3 is -48.000000
used!
weight of 0 is -24.522269
weight of 1 is -45.667005
weight of 2 is -41.022222
weight of 3 is -49.000000
not used!
deny
deny
weight of 0 is -25.055059
weight of 1 is -45.678822
weight of 2 is -42.155556
weight of 3 is -50.000000
not used!
deny
deny
deny
deny
weight of 0 is -24.530529
weight of 1 is -45.677177
weight of 2 is -41.533333
weight of 3 is -49.000000
used!
weight of 0 is -24.005998
weight of 1 is -45.675532
weight of 2 is -40.911111
weight of 3 is -48.000000
used!
weight of 0 is -24.538512
weight of 1 is -45.698167
weight of 2 is -40.911111
weight of 3 is -49.000000
not used!
deny
deny
weight of 0 is -24.013955
weight of 1 is -45.057694
weight of 2 is -40.733333
weight of 3 is -48.000000
used!
weight of 0 is -23.489398
weight of 1 is -44.417222
weight of 2 is -40.555556
weight of 3 is -47.000000
used!
deny
deny
deny
deny
weight of 0 is -22.964828
weight of 1 is -44.416049
weight of 2 is -39.311111
weight of 3 is -46.000000
used!
weight of 0 is -22.440257
weight of 1 is -44.414876
weight of 2 is -38.066667
weight of 3 is -45.000000
used!
weight of 0 is -22.973037
weight of 1 is -44.438788
weight of 2 is -39.177778
weight of 3 is -46.000000
not used!
weight of 0 is -23.505580
weight of 1 is -44.458068
weight of 2 is -39.977778
weight of 3 is -47.000000
not used!
weight of 0 is -24.038370
weight of 1 is -44.476123
weight of 2 is -40.822222
weight of 3 is -48.000000
not used!
deny
deny
weight of 0 is -24.530410
weight of 1 is -47.793868
weight of 2 is -41.266667
weight of 3 is -49.000000
not used!
weight of 0 is -25.022223
weight of 1 is -47.795223
weight of 2 is -41.911111
weight of 3 is -50.000000
not used!
weight of 0 is -25.514283
weight of 1 is -47.795549
weight of 2 is -43.066667
weight of 3 is -51.000000
not used!
deny
deny
weight of 0 is -26.046911
weight of 1 is -51.100540
weight of 2 is -43.333333
weight of 3 is -52.000000
not used!
deny
deny
weight of 0 is -26.579705
weight of 1 is -51.111849
weight of 2 is -43.533333
weight of 3 is -53.000000
not used!
deny
deny
weight of 0 is -27.112194
weight of 1 is -51.136763
weight of 2 is -43.533333
weight of 3 is -54.000000
not used!
weight of 0 is -27.644709
weight of 1 is -51.138886
weight of 2 is -43.533333
weight of 3 is -55.000000
not used!
deny
deny
weight of 0 is -27.120155
weight of 1 is -49.238677
weight of 2 is -43.533333
weight of 3 is -54.000000
used!
weight of 0 is -26.595600
weight of 1 is -47.338468
weight of 2 is -43.533333
weight of 3 is -53.000000
used!
weight of 0 is -27.128278
weight of 1 is -47.353974
weight of 2 is -43.977778
weight of 3 is -54.000000
not used!
weight of 0 is -27.661073
weight of 1 is -47.361371
weight of 2 is -44.044444
weight of 3 is -55.000000
not used!
deny
deny
weight of 0 is -27.136516
weight of 1 is -47.359298
weight of 2 is -44.044444
weight of 3 is -54.000000
used!
weight of 0 is -26.611959
weight of 1 is -47.357226
weight of 2 is -44.044444
weight of 3 is -53.000000
used!
deny
deny
weight of 0 is -26.087400
weight of 1 is -46.687105
weight of 2 is -43.866667
[...]
weight of 1 is 3.684055
weight of 2 is -41.777778
weight of 3 is -28.000000
not used!
deny
deny
weight of 0 is -29.123752
weight of 1 is 3.684015
weight of 2 is -41.955556
weight of 3 is -29.000000
not used!
weight of 0 is -29.134431
weight of 1 is 3.683994
weight of 2 is -42.311111
weight of 3 is -30.000000
not used!
deny
deny
weight of 0 is -29.123418
weight of 1 is 4.018779
weight of 2 is -41.244444
weight of 3 is -29.000000
used!
weight of 0 is -29.112405
weight of 1 is 4.353564
weight of 2 is -40.177778
weight of 3 is -28.000000
used!
deny
deny
deny
deny
deny
deny
deny
deny
deny
deny
deny
deny
deny
deny
weight of 0 is -29.703092
weight of 1 is 4.353557
weight of 2 is -40.177778
weight of 3 is -29.000000
not used!
deny
deny
weight of 0 is -29.718218
weight of 1 is 0.186876
weight of 2 is -40.177778
weight of 3 is -30.000000
not used!
weight of 0 is -29.728898
weight of 1 is -0.174995
weight of 2 is -40.888889
weight of 3 is -31.000000
not used!
weight of 0 is -29.764960
weight of 1 is -3.979605
weight of 2 is -41.422222
weight of 3 is -32.000000
not used!
weight of 0 is -29.775640
weight of 1 is -7.784250
weight of 2 is -42.311111
weight of 3 is -33.000000
not used!
deny
deny
weight of 0 is -30.366262
weight of 1 is -11.588886
weight of 2 is -43.555556
weight of 3 is -34.000000
not used!
deny
deny
deny
deny
weight of 0 is -30.402321
weight of 1 is -11.589055
weight of 2 is -44.800000
weight of 3 is -35.000000
not used!
weight of 0 is -30.412998
weight of 1 is -15.393275
weight of 2 is -45.866667
weight of 3 is -36.000000
not used!
weight of 0 is -30.423676
weight of 1 is -15.393315
weight of 2 is -46.755556
weight of 3 is -37.000000
not used!
weight of 0 is -30.434354
weight of 1 is -15.393336
weight of 2 is -47.822222
weight of 3 is -38.000000
not used!
weight of 0 is -30.470410
weight of 1 is -19.197396
weight of 2 is -48.355556
weight of 3 is -39.000000
not used!
weight of 0 is -31.061028
weight of 1 is -19.197410
weight of 2 is -48.533333
weight of 3 is -40.000000
not used!
weight of 0 is -31.651645
weight of 1 is -19.197434
weight of 2 is -49.777778
weight of 3 is -41.000000
not used!
weight of 0 is -31.662324
weight of 1 is -23.001529
weight of 2 is -50.311111
weight of 3 is -42.000000
not used!
weight of 0 is -31.698379
weight of 1 is -26.805456
weight of 2 is -51.555556
weight of 3 is -43.000000
not used!
deny
deny
weight of 0 is -31.709057
weight of 1 is -30.609406
weight of 2 is -51.733333
weight of 3 is -44.000000
not used!
deny
deny
deny
deny
weight of 0 is -32.300785
weight of 1 is -34.412940
weight of 2 is -52.800000
weight of 3 is -45.000000
not used!
deny
deny
weight of 0 is -32.311469
weight of 1 is -38.216895
weight of 2 is -53.866667
weight of 3 is -46.000000
not used!
weight of 0 is -32.322153
weight of 1 is -38.216934
weight of 2 is -54.755556
weight of 3 is -47.000000
not used!
weight of 0 is -32.332836
weight of 1 is -38.216956
weight of 2 is -55.822222
weight of 3 is -48.000000
not used!
deny
deny
deny
deny
deny
deny
weight of 0 is -32.924564
weight of 1 is -42.020910
weight of 2 is -56.888889
weight of 3 is -49.000000
not used!
deny
deny
weight of 0 is -33.516292
weight of 1 is -42.020929
weight of 2 is -57.955556
weight of 3 is -50.000000
not used!
deny
deny
weight of 0 is -34.108019
weight of 1 is -42.020948
weight of 2 is -59.022222
weight of 3 is -51.000000
not used!
deny
deny
weight of 0 is -34.699730
weight of 1 is -42.020957
weight of 2 is -59.733333
weight of 3 is -52.000000
not used!
weight of 0 is -35.291441
weight of 1 is -42.020976
weight of 2 is -60.444444
weight of 3 is -53.000000
not used!
deny
deny
weight of 0 is -35.883151
weight of 1 is -42.020995
weight of 2 is -61.155556
weight of 3 is -54.000000
not used!
deny
deny
weight of 0 is -35.893839
weight of 1 is -45.823883
weight of 2 is -61.511111
weight of 3 is -55.000000
not used!
weight of 0 is -35.904528
weight of 1 is -45.823923
weight of 2 is -61.688889
weight of 3 is -56.000000
not used!
deny
deny
weight of 0 is -35.915216
weight of 1 is -45.823944
weight of 2 is -62.044444
weight of 3 is -57.000000
not used!
deny
deny
deny
deny
weight of 0 is -35.951263
weight of 1 is -49.628033
weight of 2 is -62.577778
weight of 3 is -58.000000
not used!
deny
deny
weight of 0 is -35.359559
weight of 1 is -49.620694
weight of 2 is -62.044444
weight of 3 is -57.000000
used!
weight of 0 is -34.767856
weight of 1 is -49.613355
weight of 2 is -61.511111
weight of 3 is -56.000000
used!
deny
deny
weight of 0 is -34.778544
weight of 1 is -53.417488
weight of 2 is -62.755556
weight of 3 is -57.000000
not used!
weight of 0 is -35.356493
weight of 1 is -56.186416
weight of 2 is -62.755556
weight of 3 is -58.000000
not used!
weight of 0 is -35.947100
weight of 1 is -57.221612
weight of 2 is -64.000000
weight of 3 is -59.000000
not used!
deny
deny
weight of 0 is -35.983145
weight of 1 is -57.221781
weight of 2 is -65.244444
weight of 3 is -60.000000
not used!
deny
deny
deny
deny
weight of 0 is -35.993834
weight of 1 is -61.025759
weight of 2 is -66.133333
weight of 3 is -61.000000
not used!
weight of 0 is -36.029876
weight of 1 is -64.829559
weight of 2 is -66.666667
weight of 3 is -62.000000
not used!
deny
deny
weight of 0 is -36.620479
weight of 1 is -64.829573
weight of 2 is -66.844444
weight of 3 is -63.000000
not used!
deny
deny
weight of 0 is -37.211081
weight of 1 is -64.829596
weight of 2 is -68.088889
weight of 3 is -64.000000
not used!
deny
deny
deny
deny
weight of 0 is -37.221767
weight of 1 is -68.633140
weight of 2 is -69.155556
weight of 3 is -65.000000
not used!
weight of 0 is -37.232454
weight of 1 is -68.633180
weight of 2 is -70.044444
weight of 3 is -66.000000
not used!
weight of 0 is -37.243140
weight of 1 is -68.633201
weight of 2 is -71.111111
weight of 3 is -67.000000
not used!
weight of 0 is -37.279180
weight of 1 is -72.436594
weight of 2 is -72.355556
weight of 3 is -68.000000
not used!
deny
deny
deny
deny
deny
deny
deny
deny
deny
deny
weight of 0 is -37.289867
weight of 1 is -76.240032
weight of 2 is -72.888889
weight of 3 is -69.000000
not used!
deny
deny
weight of 0 is -37.325905
weight of 1 is -80.043292
weight of 2 is -73.422222
weight of 3 is -70.000000
not used!
deny
deny
deny
deny
weight of 0 is -36.747956
weight of 1 is -79.005379
weight of 2 is -73.422222
weight of 3 is -69.000000
used!
weight of 0 is -36.170008
weight of 1 is -77.967466
weight of 2 is -73.422222
weight of 3 is -68.000000
used!
weight of 0 is -36.180695
weight of 1 is -81.770740
weight of 2 is -73.600000
weight of 3 is -69.000000
not used!
deny
deny
deny
deny
weight of 0 is -35.602747
weight of 1 is -80.732865
weight of 2 is -73.600000
weight of 3 is -68.000000
used!
weight of 0 is -35.024798
weight of 1 is -79.694990
weight of 2 is -73.600000
weight of 3 is -67.000000
used!
deny
deny
deny
deny
deny
deny
weight of 0 is -34.446849
weight of 1 is -78.657190
weight of 2 is -73.600000
weight of 3 is -66.000000
used!
weight of 0 is -33.868901
weight of 1 is -77.619390
weight of 2 is -73.600000
weight of 3 is -65.000000
used!
deny
deny
deny
deny
deny
deny
deny
deny
deny
deny
deny
deny
deny
deny
weight of 0 is -33.277201
weight of 1 is -73.814738
weight of 2 is -72.355556
weight of 3 is -64.000000
used!
weight of 0 is -32.685501
weight of 1 is -70.010086
weight of 2 is -71.111111
weight of 3 is -63.000000
used!
deny
deny
deny
deny
deny
deny
deny
deny
deny
deny
deny
deny
deny
deny
deny
deny
deny
deny
deny
deny
deny
deny
deny
deny
deny
deny
deny
deny
deny
deny
deny
deny
deny
deny
deny
deny
deny
deny
deny
deny
deny
deny
weight of 0 is -32.093806
weight of 1 is -70.009745
weight of 2 is -70.577778
weight of 3 is -62.000000
used!
weight of 0 is -31.502110
weight of 1 is -70.009405
weight of 2 is -70.044444
weight of 3 is -61.000000
used!
deny
deny
deny
deny
deny
deny
deny
deny
deny
deny
deny
deny
deny
deny
deny
deny
weight of 0 is -31.486984
weight of 1 is -65.628013
weight of 2 is -70.044444
weight of 3 is -60.000000
used!
weight of 0 is -31.471858
weight of 1 is -61.246622
weight of 2 is -70.044444
weight of 3 is -59.000000
used!
deny
deny
deny
deny
deny
deny
deny
deny
deny
deny
deny
deny
deny
deny
deny
deny
deny
deny
deny
deny
deny
deny
deny
deny
deny
deny
deny
deny
deny
deny
deny
deny
deny
deny
deny
deny
weight of 0 is -30.880166
weight of 1 is -57.440986
weight of 2 is -68.800000
weight of 3 is -58.000000
used!
weight of 0 is -30.288474
weight of 1 is -53.635350
weight of 2 is -67.555556
weight of 3 is -57.000000
used!
deny
deny
deny
deny
deny
deny
deny
deny
deny
deny
deny
deny
deny
deny
deny
deny
deny
deny
deny
deny
deny
deny
weight of 0 is -30.273348
weight of 1 is -49.214914
weight of 2 is -67.555556
weight of 3 is -56.000000
used!
weight of 0 is -30.258222
weight of 1 is -44.794479
weight of 2 is -67.555556
weight of 3 is -55.000000
used!
deny
deny
deny
deny
deny
deny
deny
deny
deny
deny
deny
deny
weight of 0 is -30.243095
weight of 1 is -44.779148
weight of 2 is -67.555556
weight of 3 is -54.000000
used!
weight of 0 is -30.227969
weight of 1 is -44.763818
weight of 2 is -67.555556
weight of 3 is -53.000000
used!
deny
deny
deny
deny
deny
deny
deny
deny
deny
deny
deny
deny
deny
deny
deny
deny
deny
deny
deny
deny
deny
deny
deny
deny
deny
deny
deny
deny
deny
deny
deny
deny
deny
deny
deny
deny
deny
deny
deny
deny
weight of 0 is -29.714914
weight of 1 is -44.225130
weight of 2 is -67.555556
weight of 3 is -52.000000
used!
weight of 0 is -29.201858
weight of 1 is -43.686443
weight of 2 is -67.555556
weight of 3 is -51.000000
used!
deny
deny
deny
deny
deny
deny
deny
deny
deny
deny
deny
deny
deny
deny
deny
deny
deny
deny
weight of 0 is -28.689147
weight of 1 is -42.727223
weight of 2 is -67.200000
weight of 3 is -50.000000
used!
weight of 0 is -28.176437
weight of 1 is -41.768003
weight of 2 is -66.844444
weight of 3 is -49.000000
used!
deny
deny
deny
deny
deny
deny
deny
deny
deny
deny
deny
deny
deny
deny
deny
deny
deny
deny
weight of 0 is -27.675192
weight of 1 is -41.019629
weight of 2 is -65.955556
weight of 3 is -48.000000
used!
weight of 0 is -27.173947
weight of 1 is -40.271256
weight of 2 is -65.066667
weight of 3 is -47.000000
used!
deny
deny
deny
deny
deny
deny
deny
deny
deny
deny
deny
deny
deny
deny
deny
deny
deny
deny
weight of 0 is -26.672388
weight of 1 is -40.250500
weight of 2 is -63.733333
weight of 3 is -46.000000
used!
weight of 0 is -26.170829
weight of 1 is -40.229743
weight of 2 is -62.400000
weight of 3 is -45.000000
used!
deny
deny
deny
deny
deny
deny
deny
deny
weight of 0 is -25.657774
weight of 1 is -40.124051
weight of 2 is -62.400000
weight of 3 is -44.000000
used!
weight of 0 is -25.144718
weight of 1 is -40.018358
weight of 2 is -62.400000
weight of 3 is -43.000000
used!
deny
deny
deny
deny
deny
deny
deny
deny
deny
deny
deny
deny
deny
deny
deny
deny
deny
deny
deny
deny
deny
deny
deny
deny
deny
deny
deny
deny
deny
deny
deny
deny
weight of 0 is -24.631662
weight of 1 is -39.992713
weight of 2 is -62.400000
weight of 3 is -42.000000
used!
weight of 0 is -24.118606
weight of 1 is -39.967069
weight of 2 is -62.400000
weight of 3 is -41.000000
used!
deny
deny
deny
deny
deny
deny
deny
deny
weight of 0 is -23.608099
weight of 1 is -39.759610
weight of 2 is -61.688889
weight of 3 is -40.000000
used!
weight of 0 is -23.097591
weight of 1 is -39.552152
weight of 2 is -60.977778
weight of 3 is -39.000000
used!
deny
deny
deny
deny
deny
deny
deny
deny
deny
deny
deny
deny
deny
deny
deny
deny
deny
deny
deny
deny
deny
deny
deny
deny
deny
deny
deny
deny
deny
deny
deny
deny
deny
deny
deny
deny
deny
deny
deny
deny
deny
deny
deny
deny
deny
deny
deny
deny
deny
deny
deny
deny
deny
deny
deny
deny
deny
deny
deny
deny
deny
deny
deny
deny
deny
deny
deny
deny
deny
deny
deny
deny
deny
deny
deny
deny
deny
deny
deny
deny
deny
deny
deny
deny
deny
deny
deny
deny
deny
deny
deny
deny
deny
deny
deny
deny
deny
deny
deny
deny
deny
deny
deny
deny
deny
deny
deny
deny
deny
deny
deny
deny
deny
deny
deny
deny
deny
deny
deny
deny
deny
deny
deny
deny
deny
deny
deny
deny
deny
deny
deny
deny
deny
deny
deny
deny
deny
deny
deny
deny
deny
deny
deny
deny
deny
deny
weight of 0 is -22.519643
weight of 1 is -39.442870
weight of 2 is -60.977778
weight of 3 is -38.000000
used!
weight of 0 is -21.941694
weight of 1 is -39.333588
weight of 2 is -60.977778
weight of 3 is -37.000000
used!
deny
deny
weight of 0 is -21.363746
weight of 1 is -39.333569
weight of 2 is -60.977778
weight of 3 is -36.000000
used!
weight of 0 is -20.785797
weight of 1 is -39.333551
weight of 2 is -60.977778
weight of 3 is -35.000000
used!
deny
deny
deny
deny
deny
deny
weight of 0 is -20.207848
weight of 1 is -39.320249
weight of 2 is -60.977778
weight of 3 is -34.000000
used!
weight of 0 is -19.629900
weight of 1 is -39.306948
weight of 2 is -60.977778
weight of 3 is -33.000000
used!
deny
deny
weight of 0 is -19.051951
weight of 1 is -39.306929
weight of 2 is -60.977778
weight of 3 is -32.000000
used!
weight of 0 is -18.474002
weight of 1 is -39.306910
weight of 2 is -60.977778
weight of 3 is -31.000000
used!
deny
deny
deny
deny
deny
deny
deny
deny
deny
deny
deny
deny
deny
deny
deny
deny
deny
deny
deny
deny
deny
deny
deny
deny
deny
deny
deny
deny
deny
deny
deny
deny
deny
deny
deny
deny
deny
deny
deny
deny
deny
deny
deny
deny
deny
deny
deny
deny
deny
deny
deny
deny
deny
deny
deny
deny
deny
deny
deny
deny
deny
deny
deny
deny
deny
deny
deny
deny
deny
deny
deny
deny
deny
deny
deny
deny
deny
deny
deny
deny
deny
deny
deny
deny
deny
deny
deny
deny
deny
deny
deny
deny
deny
deny
weight of 0 is -17.973458
weight of 1 is -39.041296
weight of 2 is -60.977778
weight of 3 is -30.000000
used!
weight of 0 is -17.472914
weight of 1 is -38.775681
weight of 2 is -60.977778
weight of 3 is -29.000000
used!
deny
deny
weight of 0 is -16.972370
weight of 1 is -38.775662
weight of 2 is -60.977778
weight of 3 is -28.000000
used!
weight of 0 is -16.471825
weight of 1 is -38.775644
weight of 2 is -60.977778
weight of 3 is -27.000000
used!
deny
deny
weight of 0 is -15.971281
weight of 1 is -38.775625
weight of 2 is -60.977778
weight of 3 is -26.000000
used!
weight of 0 is -15.470737
weight of 1 is -38.775606
weight of 2 is -60.977778
weight of 3 is -25.000000
used!
deny
deny
weight of 0 is -14.970193
weight of 1 is -38.775587
weight of 2 is -60.977778
weight of 3 is -24.000000
used!
weight of 0 is -14.469649
weight of 1 is -38.775568
weight of 2 is -60.977778
weight of 3 is -23.000000
used!
deny
deny
weight of 0 is -13.969104
weight of 1 is -38.775550
weight of 2 is -60.977778
weight of 3 is -22.000000
used!
weight of 0 is -13.468560
weight of 1 is -38.775531
weight of 2 is -60.977778
weight of 3 is -21.000000
used!
deny
deny
deny
deny
deny
deny
deny
deny
deny
deny
weight of 0 is -12.968016
weight of 1 is -38.775512
weight of 2 is -60.977778
weight of 3 is -20.000000
used!
weight of 0 is -12.467472
weight of 1 is -38.775493
weight of 2 is -60.977778
weight of 3 is -19.000000
used!
deny
deny
deny
deny
deny
deny
weight of 0 is -11.966928
weight of 1 is -38.775174
weight of 2 is -60.977778
weight of 3 is -18.000000
used!
weight of 0 is -11.466383
weight of 1 is -38.774854
weight of 2 is -60.977778
weight of 3 is -17.000000
used!
deny
deny
deny
deny
weight of 0 is -10.965839
weight of 1 is -38.774535
weight of 2 is -60.977778
weight of 3 is -16.000000
used!
weight of 0 is -10.465295
weight of 1 is -38.774216
weight of 2 is -60.977778
weight of 3 is -15.000000
used!
deny
deny
deny
deny
weight of 0 is -9.964751
weight of 1 is -38.749023
weight of 2 is -60.977778
weight of 3 is -14.000000
used!
weight of 0 is -9.464206
weight of 1 is -38.723831
weight of 2 is -60.977778
weight of 3 is -13.000000
used!
deny
deny
weight of 0 is -8.963662
weight of 1 is -38.693528
weight of 2 is -60.977778
weight of 3 is -12.000000
used!
weight of 0 is -8.463118
weight of 1 is -38.663225
weight of 2 is -60.977778
weight of 3 is -11.000000
used!
deny
deny
weight of 0 is -7.962574
weight of 1 is -38.650187
weight of 2 is -60.977778
weight of 3 is -10.000000
used!
weight of 0 is -7.462030
weight of 1 is -38.637148
weight of 2 is -60.977778
weight of 3 is -9.000000
used!
deny
deny
deny
deny
deny
deny
deny
deny
deny
deny
weight of 0 is -6.937572
weight of 1 is -38.636690
weight of 2 is -60.622222
weight of 3 is -8.000000
used!
weight of 0 is -6.413115
weight of 1 is -38.636232
weight of 2 is -60.266667
weight of 3 is -7.000000
used!
deny
deny
weight of 0 is -5.912571
weight of 1 is -38.636214
weight of 2 is -60.266667
weight of 3 is -6.000000
used!
weight of 0 is -5.412026
weight of 1 is -38.636195
weight of 2 is -60.266667
weight of 3 is -5.000000
used!
deny
deny
deny
deny
deny
deny
weight of 0 is -4.911482
weight of 1 is -38.611363
weight of 2 is -60.266667
weight of 3 is -4.000000
used!
weight of 0 is -4.410938
weight of 1 is -38.586531
weight of 2 is -60.266667
weight of 3 is -3.000000
used!
deny
deny
weight of 0 is -3.910838
weight of 1 is -38.526550
weight of 2 is -59.377778
weight of 3 is -2.000000
used!
weight of 0 is -3.410739
weight of 1 is -38.466569
weight of 2 is -58.488889
weight of 3 is -1.000000
used!
deny
deny
weight of 0 is -2.910195
weight of 1 is -36.520320
weight of 2 is -58.488889
weight of 3 is 0.000000
used!
weight of 0 is -2.409650
weight of 1 is -34.574070
weight of 2 is -58.488889
weight of 3 is 1.000000
used!
deny
deny
deny
deny
weight of 0 is -1.909106
weight of 1 is -34.537841
weight of 2 is -58.488889
weight of 3 is 2.000000
used!
weight of 0 is -1.408562
weight of 1 is -34.501612
weight of 2 is -58.488889
weight of 3 is 3.000000
used!
deny
deny
accept
accept
deny
deny
weight of 0 is -0.907715
weight of 1 is -34.476660
weight of 2 is -58.311111
weight of 3 is 4.000000
used!
weight of 0 is -0.406868
weight of 1 is -34.451709
weight of 2 is -58.133333
weight of 3 is 5.000000
used!
deny
deny
deny
deny
deny
deny
deny
deny
accept
accept
deny
deny
accept
accept
deny
deny
deny
deny
deny
deny
accept
accept
deny
deny
accept
accept
deny
deny
accept
accept
deny
deny
deny
deny
deny
deny
deny
deny
deny
deny
deny
deny
deny
deny
deny
deny
deny
deny
deny
deny
accept
accept
accept
accept
deny
deny
deny
deny
accept
accept
deny
deny
accept
accept
deny
deny
deny
deny
deny
deny
deny
deny
deny
deny
deny
deny
deny
deny
accept
accept
deny
deny
weight of 0 is 0.171081
weight of 1 is -32.780202
weight of 2 is -58.133333
weight of 3 is 6.000000
used!
weight of 0 is 0.749030
weight of 1 is -31.108695
weight of 2 is -58.133333
weight of 3 is 7.000000
used!
accept
accept
accept
accept
deny
deny
deny
deny
deny
deny
deny
deny
deny
deny
accept
accept
deny
deny
deny
deny
deny
deny
deny
deny
deny
deny
deny
deny
deny
deny
accept
accept
deny
deny
deny
deny
deny
deny
accept
accept
accept
accept
deny
deny
deny
deny
weight of 0 is 1.273458
weight of 1 is -31.106863
weight of 2 is -56.888889
weight of 3 is 8.000000
used!
weight of 0 is 1.797886
weight of 1 is -31.105032
weight of 2 is -55.644444
weight of 3 is 9.000000
used!
deny
deny
accept
accept
deny
deny
deny
deny
accept
accept
deny
deny
deny
deny
accept
accept
deny
deny
deny
deny
accept
accept
accept
accept
deny
deny
deny
deny
deny
deny
accept
accept
deny
deny
deny
deny
accept
accept
deny
deny
accept
accept
accept
accept
accept
accept
deny
deny
deny
deny
deny
deny
deny
deny
weight of 0 is 2.375835
weight of 1 is -30.079779
weight of 2 is -55.644444
weight of 3 is 10.000000
used!
weight of 0 is 2.953783
weight of 1 is -29.054527
weight of 2 is -55.644444
weight of 3 is 11.000000
used!
accept
accept
accept
accept
weight of 0 is 2.452936
weight of 1 is -29.054532
weight of 2 is -55.644444
weight of 3 is 10.000000
not used!
accept
accept
accept
accept
weight of 0 is 1.952026
weight of 1 is -29.054536
weight of 2 is -55.644444
weight of 3 is 9.000000
not used!
deny
deny
deny
deny
weight of 0 is 2.529974
weight of 1 is -28.027891
weight of 2 is -55.644444
weight of 3 is 10.000000
used!
weight of 0 is 3.107923
weight of 1 is -27.001246
weight of 2 is -55.644444
weight of 3 is 11.000000
used!
deny
deny
Exiting @ tick 10498154000 because exiting with last active thread context
Simulated exit code not 0! Exit code is 1
