Running SPEC test: mcf

/home/victorfu/cpu2017/benchspec/CPU/505.mcf_r
/home/victorfu/finalproject/gem5/build/X86/gem5.opt --outdir="/home/victorfu/output/bench_spec/fastforward-no-pf-no-pcept/mcf" /home/victorfu/finalproject/gem5/configs/example/se.py --cmd=mcf_r_base.victor_jun10-m64 --standard-switch=1 --warmup-insts=73000000 --caches  --l2cache --l1i_size=16kB  --l1d_size=64kB --l2_size=256kB --cpu-type=DerivO3CPU  --mem-type=DDR3_1600_8x8  --cpu-clock=1GHz --maxinsts=100000000 --options='inp.in'  

gem5 Simulator System.  http://gem5.org
gem5 is copyrighted software; use the --copyright option for details.

gem5 compiled Jun 14 2019 18:48:06
gem5 started Jun 14 2019 19:47:32
gem5 executing on tetracosa.cs.ucla.edu, pid 443284
command line: /home/victorfu/finalproject/gem5/build/X86/gem5.opt --outdir=/home/victorfu/output/bench_spec/fastforward-no-pf-no-pcept/mcf /home/victorfu/finalproject/gem5/configs/example/se.py --cmd=mcf_r_base.victor_jun10-m64 --standard-switch=1 --warmup-insts=73000000 --caches --l2cache --l1i_size=16kB --l1d_size=64kB --l2_size=256kB --cpu-type=DerivO3CPU --mem-type=DDR3_1600_8x8 --cpu-clock=1GHz --maxinsts=100000000 --options=inp.in

info: Standard input is not a terminal, disabling listeners.
Warning: no l2 prefetcher specified. Ignoring L2 Prefetch MLU config
Global frequency set at 1000000000000 ticks per second
warn: DRAM device capacity (8192 Mbytes) does not match the address range assigned (512 Mbytes)
warn: Sockets disabled, not accepting gdb connections
Switch at instruction count:1
info: Entering event queue @ 0.  Starting simulation...
Switched CPUS @ tick 119000
switching cpus
info: Entering event queue @ 119000.  Starting simulation...
warn: ClockedObject: Already in the requested power state, request ignored
Switch at instruction count:73000000
info: Entering event queue @ 8066000.  Starting simulation...
info: Increasing stack size by one page.
warn: ignoring syscall access(...)
warn: ignoring syscall mprotect(...)
warn: ignoring syscall mprotect(...)
warn: ignoring syscall mprotect(...)
warn: ignoring syscall mprotect(...)
warn: ignoring syscall mprotect(...)
warn: ignoring syscall mprotect(...)

MCF SPEC CPU version 1.11
Copyright (c) 1998-2000 Zuse Institut Berlin (ZIB)
Copyright (c) 2000-2002 Andreas Loebel & ZIB
Copyright (c) 2003-2005 Andreas Loebel
Copyright (c) 2006-2010 Dres. Loebel, Borndoerfer & Weider GbR (LBW)

Switching CPUS @ tick 278569085000
Simulation ends instruction count:100000000
switching cpus
info: Entering event queue @ 278569085000.  Starting simulation...
**** REAL SIMULATION ****
info: Entering event queue @ 278579130500.  Starting simulation...
info: Increasing stack size by one page.
info: Increasing stack size by one page.
Exiting @ tick 341198784000 because a thread reached the max instruction count
