Running SPEC test: exchange2

/home/victorfu/cpu2017/benchspec/CPU/548.exchange2_r
gem5 Simulator System.  http://gem5.org
gem5 is copyrighted software; use the --copyright option for details.

gem5 compiled Jun 12 2019 22:55:31
gem5 started Jun 14 2019 10:01:01
gem5 executing on tetracosa.cs.ucla.edu, pid 87612
command line: /home/victorfu/finalproject/gem5/build/X86/gem5.opt --outdir=/home/victorfu/output/bench_spec/simple/exchange2 /home/victorfu/finalproject/gem5/configs/example/se.py --caches --l2cache --cmd=exchange2_r_base.victor_jun10-m64 --l1i_size=16kB --l1d_size=64kB --l2_size=256kB --cpu-type=DerivO3CPU --mem-type=DDR3_1600_8x8 --cpu-clock=1GHz --maxinsts=100000000 --options=6 --l2-hwp-type=TaggedPrefetcher --mlu_pf_type=perceptron

info: Standard input is not a terminal, disabling listeners.
Warning: l2-hwp-type is set ( TaggedPrefetcher ), but the current l2 has a default Hardware Prefetcher of type <class 'm5.params.NullSimObject'> , using the specified by the flag option.
MLU-Prefetch Perceptron Enabled.
Global frequency set at 1000000000000 ticks per second
warn: DRAM device capacity (8192 Mbytes) does not match the address range assigned (512 Mbytes)
PerceptronUnit is in mode: PC_DELTA_ADDR
warn: Sockets disabled, not accepting gdb connections
**** REAL SIMULATION ****
info: Entering event queue @ 0.  Starting simulation...
new weight for 0 is: -1
new weight for 1 is: -136741241
new weight for 2 is: 136741361
new weight for 0 is: -2
new weight for 1 is: -136741261
new weight for 2 is: 136741381
info: Increasing stack size by one page.
warn: ignoring syscall access(...)
warn: ignoring syscall mprotect(...)
warn: ignoring syscall mprotect(...)
warn: ignoring syscall mprotect(...)
warn: ignoring syscall mprotect(...)
warn: ignoring syscall mprotect(...)
new weight for 0 is: -3
new weight for 1 is: -162865172
new weight for 2 is: 162865300
new weight for 0 is: -4
new weight for 1 is: -162865172
new weight for 2 is: 162865300
new weight for 0 is: -5
new weight for 1 is: -162865172
new weight for 2 is: 162865300
new weight for 0 is: -6
new weight for 1 is: -162865172
new weight for 2 is: 162865300
new weight for 0 is: -7
new weight for 1 is: -162865156
new weight for 2 is: 162865284
new weight for 0 is: -8
new weight for 1 is: -162865156
new weight for 2 is: 162865284
warn: ignoring syscall mprotect(...)
info: Increasing stack size by one page.
warn: ignoring syscall mprotect(...)
warn: ignoring syscall mprotect(...)
warn: ignoring syscall mprotect(...)
warn: ignoring syscall mprotect(...)
warn: ignoring syscall mprotect(...)
warn: ignoring syscall mprotect(...)
new weight for 0 is: -9
new weight for 1 is: -162865156
new weight for 2 is: 162865284
new weight for 0 is: -10
new weight for 1 is: -166727159
new weight for 2 is: 166727283
new weight for 0 is: -11
new weight for 1 is: -166727159
new weight for 2 is: 166727283
new weight for 0 is: -12
new weight for 1 is: -166727159
new weight for 2 is: 166727283
new weight for 0 is: -13
new weight for 1 is: -166727159
new weight for 2 is: 166727283
new weight for 0 is: -14
new weight for 1 is: -162865124
new weight for 2 is: 162865252
new weight for 0 is: -15
new weight for 1 is: -162865124
new weight for 2 is: 162865252
new weight for 0 is: -16
new weight for 1 is: -162865124
new weight for 2 is: 162865252
new weight for 0 is: -17
new weight for 1 is: -162865140
new weight for 2 is: 162865268
new weight for 0 is: -18
new weight for 1 is: -162865174
new weight for 2 is: 162865302
new weight for 0 is: -19
new weight for 1 is: -162865174
new weight for 2 is: 162865302
new weight for 0 is: -20
new weight for 1 is: -162865140
new weight for 2 is: 162865268
new weight for 0 is: -21
new weight for 1 is: -162865140
new weight for 2 is: 162865268
new weight for 0 is: -21
new weight for 1 is: -162865140
new weight for 2 is: 162865268
new weight for 0 is: -21
new weight for 1 is: -162865140
new weight for 2 is: 162865268
new weight for 0 is: -21
new weight for 1 is: -162865140
new weight for 2 is: 162865268
new weight for 0 is: -21
new weight for 1 is: -162865140
new weight for 2 is: 162865268
new weight for 0 is: -21
new weight for 1 is: -162865172
new weight for 2 is: 162865300
new weight for 0 is: -21
new weight for 1 is: -162865172
new weight for 2 is: 162865300
new weight for 0 is: -21
new weight for 1 is: -162865172
new weight for 2 is: 162865300
new weight for 0 is: -21
new weight for 1 is: -162865172
new weight for 2 is: 162865300
new weight for 0 is: -21
new weight for 1 is: -162865172
new weight for 2 is: 162865300
new weight for 0 is: -21
new weight for 1 is: -162865172
new weight for 2 is: 162865300
new weight for 0 is: -21
new weight for 1 is: -162865172
new weight for 2 is: 162865300
new weight for 0 is: -21
new weight for 1 is: -166529287
new weight for 2 is: 166529415
new weight for 0 is: -21
new weight for 1 is: -166529287
new weight for 2 is: 166529415
new weight for 0 is: -21
new weight for 1 is: -162865165
new weight for 2 is: 162865293
new weight for 0 is: -21
new weight for 1 is: -162865156
new weight for 2 is: 162865284
new weight for 0 is: -21
new weight for 1 is: -162865156
new weight for 2 is: 162865284
new weight for 0 is: -21
new weight for 1 is: -162865140
new weight for 2 is: 162865268
new weight for 0 is: -21
new weight for 1 is: -162865140
new weight for 2 is: 162865268
new weight for 0 is: -21
new weight for 1 is: -162865140
new weight for 2 is: 162865268
new weight for 0 is: -21
new weight for 1 is: -162865140
new weight for 2 is: 162865268
new weight for 0 is: -21
new weight for 1 is: -162865140
new weight for 2 is: 162865268
new weight for 0 is: -21
new weight for 1 is: -162865140
new weight for 2 is: 162865268
new weight for 0 is: -21
new weight for 1 is: -162865140
new weight for 2 is: 162865268
new weight for 0 is: -21
new weight for 1 is: -162865140
new weight for 2 is: 162865268
new weight for 0 is: -21
new weight for 1 is: -162865173
new weight for 2 is: 162865301
new weight for 0 is: -21
new weight for 1 is: -162865173
new weight for 2 is: 162865301
new weight for 0 is: -21
new weight for 1 is: -162865124
new weight for 2 is: 162865252
new weight for 0 is: -21
new weight for 1 is: -162865124
new weight for 2 is: 162865252
new weight for 0 is: -21
new weight for 1 is: -162865124
new weight for 2 is: 162865252
new weight for 0 is: -21
new weight for 1 is: -162865124
new weight for 2 is: 162865252
new weight for 0 is: -21
new weight for 1 is: -162865111
new weight for 2 is: 162865239
new weight for 0 is: -21
new weight for 1 is: -162865111
new weight for 2 is: 162865239
new weight for 0 is: -21
new weight for 1 is: -162865111
new weight for 2 is: 162865239
new weight for 0 is: -21
new weight for 1 is: -162865111
new weight for 2 is: 162865239
new weight for 0 is: -21
new weight for 1 is: -162865172
new weight for 2 is: 162865300
new weight for 0 is: -21
new weight for 1 is: -162865172
new weight for 2 is: 162865300
new weight for 0 is: -21
new weight for 1 is: -161585560
new weight for 2 is: 161585674
new weight for 0 is: -21
new weight for 1 is: -161585560
new weight for 2 is: 161585674
new weight for 0 is: -21
new weight for 1 is: -161585560
new weight for 2 is: 161585674
new weight for 0 is: -21
new weight for 1 is: -161585560
new weight for 2 is: 161585674
new weight for 0 is: -21
new weight for 1 is: -161585944
new weight for 2 is: 161586058
new weight for 0 is: -21
new weight for 1 is: -161585944
new weight for 2 is: 161586058
new weight for 0 is: -21
new weight for 1 is: -161585944
new weight for 2 is: 161586058
new weight for 0 is: -21
new weight for 1 is: -161585944
new weight for 2 is: 161586058
new weight for 0 is: -21
new weight for 1 is: -161586345
new weight for 2 is: 161586473
new weight for 0 is: -21
new weight for 1 is: -161586345
new weight for 2 is: 161586473
new weight for 0 is: -21
new weight for 1 is: -161586345
new weight for 2 is: 161586473
new weight for 0 is: -21
new weight for 1 is: -161586345
new weight for 2 is: 161586473
new weight for 0 is: -21
new weight for 1 is: -161585752
new weight for 2 is: 161585866
new weight for 0 is: -21
new weight for 1 is: -161585752
new weight for 2 is: 161585866
new weight for 0 is: -21
new weight for 1 is: -161576157
new weight for 2 is: 161576285
new weight for 0 is: -21
new weight for 1 is: -161576157
new weight for 2 is: 161576285
new weight for 0 is: -21
new weight for 1 is: -161586904
new weight for 2 is: 161587018
new weight for 0 is: -21
new weight for 1 is: -161586904
new weight for 2 is: 161587018
new weight for 0 is: -21
new weight for 1 is: -161587028
new weight for 2 is: 161587156
new weight for 0 is: -21
new weight for 1 is: -161587028
new weight for 2 is: 161587156
new weight for 0 is: -21
new weight for 1 is: -161587028
new weight for 2 is: 161587156
new weight for 0 is: -21
new weight for 1 is: -161587028
new weight for 2 is: 161587156
new weight for 0 is: -21
new weight for 1 is: -161587327
new weight for 2 is: 161587455
new weight for 0 is: -21
new weight for 1 is: -161587327
new weight for 2 is: 161587455
new weight for 0 is: -21
new weight for 1 is: -161587327
new weight for 2 is: 161587455
new weight for 0 is: -21
new weight for 1 is: -161587327
new weight for 2 is: 161587455
new weight for 0 is: -21
new weight for 1 is: -161587497
new weight for 2 is: 161587625
new weight for 0 is: -21
new weight for 1 is: -161587497
new weight for 2 is: 161587625
new weight for 0 is: -21
new weight for 1 is: -161587689
new weight for 2 is: 161587817
new weight for 0 is: -21
new weight for 1 is: -161587689
new weight for 2 is: 161587817
new weight for 0 is: -21
new weight for 1 is: -161587689
new weight for 2 is: 161587817
new weight for 0 is: -21
new weight for 1 is: -161587689
new weight for 2 is: 161587817
new weight for 0 is: -21
new weight for 1 is: -161576349
new weight for 2 is: 161576477
new weight for 0 is: -21
new weight for 1 is: -161576349
new weight for 2 is: 161576477
new weight for 0 is: -21
new weight for 1 is: -161588073
new weight for 2 is: 161588201
new weight for 0 is: -21
new weight for 1 is: -161588073
new weight for 2 is: 161588201
new weight for 0 is: -21
new weight for 1 is: -161588073
new weight for 2 is: 161588201
new weight for 0 is: -21
new weight for 1 is: -161588073
new weight for 2 is: 161588201
new weight for 0 is: -21
new weight for 1 is: -161588265
new weight for 2 is: 161588393
new weight for 0 is: -21
new weight for 1 is: -161588265
new weight for 2 is: 161588393
new weight for 0 is: -21
new weight for 1 is: -161588457
new weight for 2 is: 161588585
new weight for 0 is: -21
new weight for 1 is: -161588457
new weight for 2 is: 161588585
new weight for 0 is: -21
new weight for 1 is: -161588671
new weight for 2 is: 161588799
new weight for 0 is: -21
new weight for 1 is: -161588671
new weight for 2 is: 161588799
new weight for 0 is: -21
new weight for 1 is: -161588863
new weight for 2 is: 161588991
new weight for 0 is: -21
new weight for 1 is: -161588863
new weight for 2 is: 161588991
new weight for 0 is: -21
new weight for 1 is: -161588944
new weight for 2 is: 161589066
new weight for 0 is: -21
new weight for 1 is: -161588944
new weight for 2 is: 161589066
new weight for 0 is: -21
new weight for 1 is: -161588944
new weight for 2 is: 161589066
new weight for 0 is: -21
new weight for 1 is: -161588944
new weight for 2 is: 161589066
new weight for 0 is: -21
new weight for 1 is: -161589136
new weight for 2 is: 161589258
new weight for 0 is: -21
new weight for 1 is: -161589136
new weight for 2 is: 161589258
new weight for 0 is: -21
new weight for 1 is: -161589520
new weight for 2 is: 161589642
new weight for 0 is: -21
new weight for 1 is: -161589520
new weight for 2 is: 161589642
new weight for 0 is: -21
new weight for 1 is: -161589609
new weight for 2 is: 161589737
new weight for 0 is: -21
new weight for 1 is: -161589609
new weight for 2 is: 161589737
new weight for 0 is: -21
new weight for 1 is: -161590096
new weight for 2 is: 161590218
new weight for 0 is: -21
new weight for 1 is: -161590096
new weight for 2 is: 161590218
new weight for 0 is: -21
new weight for 1 is: -161590096
new weight for 2 is: 161590218
new weight for 0 is: -21
new weight for 1 is: -161590096
new weight for 2 is: 161590218
new weight for 0 is: -21
new weight for 1 is: -161590288
new weight for 2 is: 161590410
new weight for 0 is: -21
new weight for 1 is: -161590288
new weight for 2 is: 161590410
new weight for 0 is: -21
new weight for 1 is: -161590552
new weight for 2 is: 161590666
new weight for 0 is: -21
new weight for 1 is: -161590552
new weight for 2 is: 161590666
new weight for 0 is: -21
new weight for 1 is: -161590676
new weight for 2 is: 161590804
new weight for 0 is: -21
new weight for 1 is: -161590676
new weight for 2 is: 161590804
new weight for 0 is: -21
new weight for 1 is: -161590676
new weight for 2 is: 161590804
new weight for 0 is: -21
new weight for 1 is: -161590676
new weight for 2 is: 161590804
new weight for 0 is: -21
new weight for 1 is: -161590868
new weight for 2 is: 161590996
new weight for 0 is: -21
new weight for 1 is: -161590868
new weight for 2 is: 161590996
new weight for 0 is: -21
new weight for 1 is: -161590868
new weight for 2 is: 161590996
new weight for 0 is: -21
new weight for 1 is: -161590868
new weight for 2 is: 161590996
new weight for 0 is: -21
new weight for 1 is: -161591060
new weight for 2 is: 161591188
new weight for 0 is: -21
new weight for 1 is: -161591060
new weight for 2 is: 161591188
new weight for 0 is: -21
new weight for 1 is: -161591060
new weight for 2 is: 161591188
new weight for 0 is: -21
new weight for 1 is: -161591060
new weight for 2 is: 161591188
new weight for 0 is: -21
new weight for 1 is: -161576733
new weight for 2 is: 161576861
new weight for 0 is: -21
new weight for 1 is: -161576733
new weight for 2 is: 161576861
new weight for 0 is: -21
new weight for 1 is: -161591337
new weight for 2 is: 161591465
new weight for 0 is: -21
new weight for 1 is: -161591337
new weight for 2 is: 161591465
new weight for 0 is: -21
new weight for 1 is: -161591584
new weight for 2 is: 161591690
new weight for 0 is: -21
new weight for 1 is: -161591584
new weight for 2 is: 161591690
new weight for 0 is: -21
new weight for 1 is: -161591721
new weight for 2 is: 161591849
new weight for 0 is: -21
new weight for 1 is: -161591721
new weight for 2 is: 161591849
new weight for 0 is: -21
new weight for 1 is: -161592016
new weight for 2 is: 161592138
new weight for 0 is: -21
new weight for 1 is: -161592016
new weight for 2 is: 161592138
new weight for 0 is: -21
new weight for 1 is: -161592208
new weight for 2 is: 161592330
new weight for 0 is: -21
new weight for 1 is: -161592208
new weight for 2 is: 161592330
new weight for 0 is: -21
new weight for 1 is: -161592400
new weight for 2 is: 161592522
new weight for 0 is: -21
new weight for 1 is: -161592400
new weight for 2 is: 161592522
new weight for 0 is: -21
new weight for 1 is: -161577117
new weight for 2 is: 161577245
new weight for 0 is: -21
new weight for 1 is: -161577117
new weight for 2 is: 161577245
new weight for 0 is: -21
new weight for 1 is: -161592664
new weight for 2 is: 161592778
new weight for 0 is: -21
new weight for 1 is: -161592664
new weight for 2 is: 161592778
new weight for 0 is: -21
new weight for 1 is: -161592788
new weight for 2 is: 161592916
new weight for 0 is: -21
new weight for 1 is: -161592788
new weight for 2 is: 161592916
new weight for 0 is: -21
new weight for 1 is: -161592788
new weight for 2 is: 161592916
new weight for 0 is: -21
new weight for 1 is: -161592788
new weight for 2 is: 161592916
new weight for 0 is: -21
new weight for 1 is: -161593048
new weight for 2 is: 161593162
new weight for 0 is: -21
new weight for 1 is: -161593048
new weight for 2 is: 161593162
new weight for 0 is: -21
new weight for 1 is: -161593279
new weight for 2 is: 161593407
new weight for 0 is: -21
new weight for 1 is: -161593279
new weight for 2 is: 161593407
new weight for 0 is: -21
new weight for 1 is: -161577245
new weight for 2 is: 161577373
new weight for 0 is: -21
new weight for 1 is: -161577245
new weight for 2 is: 161577373
new weight for 0 is: -21
new weight for 1 is: -161577245
new weight for 2 is: 161577373
new weight for 0 is: -21
new weight for 1 is: -161577245
new weight for 2 is: 161577373
new weight for 0 is: -21
new weight for 1 is: -161593449
new weight for 2 is: 161593577
new weight for 0 is: -21
new weight for 1 is: -161593449
new weight for 2 is: 161593577
new weight for 0 is: -21
new weight for 1 is: -161593641
new weight for 2 is: 161593769
new weight for 0 is: -21
new weight for 1 is: -161593641
new weight for 2 is: 161593769
new weight for 0 is: -21
new weight for 1 is: -161593744
new weight for 2 is: 161593866
new weight for 0 is: -21
new weight for 1 is: -161593744
new weight for 2 is: 161593866
new weight for 0 is: -21
new weight for 1 is: -161593936
new weight for 2 is: 161594058
new weight for 0 is: -21
new weight for 1 is: -161593936
new weight for 2 is: 161594058
new weight for 0 is: -21
new weight for 1 is: -161593936
new weight for 2 is: 161594058
new weight for 0 is: -21
new weight for 1 is: -161593936
new weight for 2 is: 161594058
new weight for 0 is: -21
new weight for 1 is: -161594128
new weight for 2 is: 161594250
new weight for 0 is: -21
new weight for 1 is: -161594128
new weight for 2 is: 161594250
new weight for 0 is: -21
new weight for 1 is: -161594324
new weight for 2 is: 161594452
new weight for 0 is: -21
new weight for 1 is: -161594324
new weight for 2 is: 161594452
new weight for 0 is: -21
new weight for 1 is: -161594324
new weight for 2 is: 161594452
new weight for 0 is: -21
new weight for 1 is: -161594324
new weight for 2 is: 161594452
new weight for 0 is: -21
new weight for 1 is: -161594516
new weight for 2 is: 161594644
new weight for 0 is: -21
new weight for 1 is: -161594516
new weight for 2 is: 161594644
new weight for 0 is: -21
new weight for 1 is: -161594793
new weight for 2 is: 161594921
new weight for 0 is: -21
new weight for 1 is: -161594793
new weight for 2 is: 161594921
new weight for 0 is: -21
new weight for 1 is: -161594985
new weight for 2 is: 161595113
new weight for 0 is: -21
new weight for 1 is: -161594985
new weight for 2 is: 161595113
new weight for 0 is: -21
new weight for 1 is: -161595199
new weight for 2 is: 161595327
new weight for 0 is: -21
new weight for 1 is: -161595199
new weight for 2 is: 161595327
new weight for 0 is: -21
new weight for 1 is: -161595199
new weight for 2 is: 161595327
new weight for 0 is: -21
new weight for 1 is: -161595199
new weight for 2 is: 161595327
new weight for 0 is: -21
new weight for 1 is: -161595369
new weight for 2 is: 161595497
new weight for 0 is: -21
new weight for 1 is: -161595369
new weight for 2 is: 161595497
new weight for 0 is: -21
new weight for 1 is: -161595369
new weight for 2 is: 161595497
new weight for 0 is: -21
new weight for 1 is: -161595369
new weight for 2 is: 161595497
new weight for 0 is: -21
new weight for 1 is: -161595561
new weight for 2 is: 161595689
new weight for 0 is: -21
new weight for 1 is: -161595561
new weight for 2 is: 161595689
new weight for 0 is: -21
new weight for 1 is: -161577629
new weight for 2 is: 161577757
new weight for 0 is: -21
new weight for 1 is: -161577629
new weight for 2 is: 161577757
new weight for 0 is: -21
new weight for 1 is: -161595753
new weight for 2 is: 161595881
new weight for 0 is: -21
new weight for 1 is: -161595753
new weight for 2 is: 161595881
new weight for 0 is: -21
new weight for 1 is: -161595967
new weight for 2 is: 161596095
new weight for 0 is: -21
new weight for 1 is: -161595967
new weight for 2 is: 161596095
new weight for 0 is: -21
new weight for 1 is: -161596137
new weight for 2 is: 161596265
new weight for 0 is: -21
new weight for 1 is: -161596137
new weight for 2 is: 161596265
new weight for 0 is: -21
new weight for 1 is: -161596432
new weight for 2 is: 161596554
new weight for 0 is: -21
new weight for 1 is: -161596432
new weight for 2 is: 161596554
new weight for 0 is: -21
new weight for 1 is: -161596432
new weight for 2 is: 161596554
new weight for 0 is: -21
new weight for 1 is: -161596432
new weight for 2 is: 161596554
new weight for 0 is: -21
new weight for 1 is: -161596624
new weight for 2 is: 161596746
new weight for 0 is: -21
new weight for 1 is: -161596624
new weight for 2 is: 161596746
new weight for 0 is: -21
new weight for 1 is: -161596816
new weight for 2 is: 161596938
new weight for 0 is: -21
new weight for 1 is: -161596816
new weight for 2 is: 161596938
new weight for 0 is: -21
new weight for 1 is: -161597008
new weight for 2 is: 161597130
new weight for 0 is: -21
new weight for 1 is: -161597008
new weight for 2 is: 161597130
new weight for 0 is: -21
new weight for 1 is: -161597200
new weight for 2 is: 161597322
new weight for 0 is: -21
new weight for 1 is: -161597200
new weight for 2 is: 161597322
new weight for 0 is: -21
new weight for 1 is: -161597200
new weight for 2 is: 161597322
new weight for 0 is: -21
new weight for 1 is: -161597200
new weight for 2 is: 161597322
new weight for 0 is: -21
new weight for 1 is: -161572980
new weight for 2 is: 161573108
new weight for 0 is: -21
new weight for 1 is: -161572980
new weight for 2 is: 161573108
new weight for 0 is: -21
new weight for 1 is: -161572980
new weight for 2 is: 161573108
new weight for 0 is: -21
new weight for 1 is: -161572980
new weight for 2 is: 161573108
new weight for 0 is: -21
new weight for 1 is: -161597695
new weight for 2 is: 161597823
new weight for 0 is: -21
new weight for 1 is: -161597695
new weight for 2 is: 161597823
new weight for 0 is: -21
new weight for 1 is: -161597865
new weight for 2 is: 161597993
new weight for 0 is: -21
new weight for 1 is: -161597865
new weight for 2 is: 161597993
new weight for 0 is: -21
new weight for 1 is: -161597865
new weight for 2 is: 161597993
new weight for 0 is: -21
new weight for 1 is: -161597865
new weight for 2 is: 161597993
new weight for 0 is: -21
new weight for 1 is: -161598160
new weight for 2 is: 161598282
new weight for 0 is: -21
new weight for 1 is: -161598160
new weight for 2 is: 161598282
new weight for 0 is: -21
new weight for 1 is: -161598160
new weight for 2 is: 161598282
new weight for 0 is: -21
new weight for 1 is: -161598160
new weight for 2 is: 161598282
new weight for 0 is: -21
new weight for 1 is: -161598160
new weight for 2 is: 161598282
new weight for 0 is: -21
new weight for 1 is: -161598160
new weight for 2 is: 161598282
new weight for 0 is: -21
new weight for 1 is: -161598160
new weight for 2 is: 161598282
new weight for 0 is: -21
new weight for 1 is: -161598160
new weight for 2 is: 161598282
new weight for 0 is: -21
new weight for 1 is: -161578077
new weight for 2 is: 161578205
new weight for 0 is: -21
new weight for 1 is: -161578077
new weight for 2 is: 161578205
new weight for 0 is: -21
new weight for 1 is: -161598441
new weight for 2 is: 161598569
new weight for 0 is: -21
new weight for 1 is: -161598441
new weight for 2 is: 161598569
new weight for 0 is: -21
new weight for 1 is: -161598441
new weight for 2 is: 161598569
new weight for 0 is: -21
new weight for 1 is: -161598441
new weight for 2 is: 161598569
new weight for 0 is: -21
new weight for 1 is: -161598736
new weight for 2 is: 161598858
new weight for 0 is: -21
new weight for 1 is: -161598736
new weight for 2 is: 161598858
new weight for 0 is: -21
new weight for 1 is: -161598736
new weight for 2 is: 161598858
new weight for 0 is: -21
new weight for 1 is: -161598736
new weight for 2 is: 161598858
new weight for 0 is: -21
new weight for 1 is: -161599120
new weight for 2 is: 161599242
new weight for 0 is: -21
new weight for 1 is: -161599120
new weight for 2 is: 161599242
new weight for 0 is: -21
new weight for 1 is: -161599120
new weight for 2 is: 161599242
new weight for 0 is: -21
new weight for 1 is: -161599120
new weight for 2 is: 161599242
new weight for 0 is: -21
new weight for 1 is: -161599192
new weight for 2 is: 161599306
new weight for 0 is: -21
new weight for 1 is: -161599192
new weight for 2 is: 161599306
new weight for 0 is: -21
new weight for 1 is: -161599316
new weight for 2 is: 161599444
new weight for 0 is: -21
new weight for 1 is: -161599316
new weight for 2 is: 161599444
new weight for 0 is: -21
new weight for 1 is: -161599316
new weight for 2 is: 161599444
new weight for 0 is: -21
new weight for 1 is: -161599316
new weight for 2 is: 161599444
new weight for 0 is: -21
new weight for 1 is: -161599648
new weight for 2 is: 161599754
new weight for 0 is: -21
new weight for 1 is: -161599648
new weight for 2 is: 161599754
new weight for 0 is: -21
new weight for 1 is: -161599648
new weight for 2 is: 161599754
new weight for 0 is: -21
new weight for 1 is: -161599648
new weight for 2 is: 161599754
new weight for 0 is: -21
new weight for 1 is: -161599785
new weight for 2 is: 161599913
new weight for 0 is: -21
new weight for 1 is: -161599785
new weight for 2 is: 161599913
new weight for 0 is: -21
new weight for 1 is: -161599785
new weight for 2 is: 161599913
new weight for 0 is: -21
new weight for 1 is: -161599785
new weight for 2 is: 161599913
new weight for 0 is: -21
new weight for 1 is: -161599977
new weight for 2 is: 161600105
new weight for 0 is: -21
new weight for 1 is: -161599977
new weight for 2 is: 161600105
new weight for 0 is: -21
new weight for 1 is: -161599977
new weight for 2 is: 161600105
new weight for 0 is: -21
new weight for 1 is: -161599977
new weight for 2 is: 161600105
new weight for 0 is: -21
new weight for 1 is: -161599977
new weight for 2 is: 161600105
new weight for 0 is: -21
new weight for 1 is: -161599977
new weight for 2 is: 161600105
new weight for 0 is: -21
new weight for 1 is: -161600361
new weight for 2 is: 161600489
new weight for 0 is: -21
new weight for 1 is: -161600361
new weight for 2 is: 161600489
new weight for 0 is: -21
new weight for 1 is: -161600745
new weight for 2 is: 161600873
new weight for 0 is: -21
new weight for 1 is: -161600745
new weight for 2 is: 161600873
new weight for 0 is: -21
new weight for 1 is: -161600745
new weight for 2 is: 161600873
new weight for 0 is: -21
new weight for 1 is: -161600745
new weight for 2 is: 161600873
new weight for 0 is: -21
new weight for 1 is: -161600937
new weight for 2 is: 161601065
new weight for 0 is: -21
new weight for 1 is: -161600937
new weight for 2 is: 161601065
new weight for 0 is: -21
new weight for 1 is: -161601232
new weight for 2 is: 161601354
new weight for 0 is: -21
new weight for 1 is: -161601232
new weight for 2 is: 161601354
new weight for 0 is: -21
new weight for 1 is: -161601232
new weight for 2 is: 161601354
new weight for 0 is: -21
new weight for 1 is: -161601232
new weight for 2 is: 161601354
new weight for 0 is: -21
new weight for 1 is: -161601424
new weight for 2 is: 161601546
new weight for 0 is: -21
new weight for 1 is: -161601424
new weight for 2 is: 161601546
new weight for 0 is: -21
new weight for 1 is: -161601616
new weight for 2 is: 161601738
new weight for 0 is: -21
new weight for 1 is: -161601616
new weight for 2 is: 161601738
new weight for 0 is: -21
new weight for 1 is: -161601808
new weight for 2 is: 161601930
new weight for 0 is: -21
new weight for 1 is: -161601808
new weight for 2 is: 161601930
new weight for 0 is: -21
new weight for 1 is: -161601897
new weight for 2 is: 161602025
new weight for 0 is: -21
new weight for 1 is: -161601897
new weight for 2 is: 161602025
new weight for 0 is: -21
new weight for 1 is: -161602192
new weight for 2 is: 161602314
new weight for 0 is: -21
new weight for 1 is: -161602192
new weight for 2 is: 161602314
new weight for 0 is: -21
new weight for 1 is: -161602473
new weight for 2 is: 161602601
new weight for 0 is: -21
new weight for 1 is: -161602473
new weight for 2 is: 161602601
new weight for 0 is: -21
new weight for 1 is: -161602473
new weight for 2 is: 161602601
new weight for 0 is: -21
new weight for 1 is: -161602473
new weight for 2 is: 161602601
new weight for 0 is: -21
new weight for 1 is: -161602473
new weight for 2 is: 161602601
new weight for 0 is: -21
new weight for 1 is: -161602473
new weight for 2 is: 161602601
new weight for 0 is: -21
new weight for 1 is: -161602473
new weight for 2 is: 161602601
new weight for 0 is: -21
new weight for 1 is: -161602473
new weight for 2 is: 161602601
new weight for 0 is: -21
new weight for 1 is: -161602473
new weight for 2 is: 161602601
new weight for 0 is: -21
new weight for 1 is: -161602473
new weight for 2 is: 161602601
new weight for 0 is: -21
new weight for 1 is: -161603049
new weight for 2 is: 161603177
new weight for 0 is: -21
new weight for 1 is: -161603049
new weight for 2 is: 161603177
new weight for 0 is: -21
new weight for 1 is: -161602665
new weight for 2 is: 161602793
new weight for 0 is: -21
new weight for 1 is: -161602665
new weight for 2 is: 161602793
new weight for 0 is: -21
new weight for 1 is: -161603728
new weight for 2 is: 161603850
new weight for 0 is: -21
new weight for 1 is: -161603728
new weight for 2 is: 161603850
new weight for 0 is: -21
new weight for 1 is: -161603728
new weight for 2 is: 161603850
new weight for 0 is: -21
new weight for 1 is: -161603728
new weight for 2 is: 161603850
new weight for 0 is: -21
new weight for 1 is: -161604112
new weight for 2 is: 161604234
new weight for 0 is: -21
new weight for 1 is: -161604112
new weight for 2 is: 161604234
new weight for 0 is: -21
new weight for 1 is: -161604184
new weight for 2 is: 161604298
new weight for 0 is: -21
new weight for 1 is: -161604184
new weight for 2 is: 161604298
new weight for 0 is: -21
new weight for 1 is: -161604393
new weight for 2 is: 161604521
new weight for 0 is: -21
new weight for 1 is: -161604393
new weight for 2 is: 161604521
new weight for 0 is: -21
new weight for 1 is: -161604393
new weight for 2 is: 161604521
new weight for 0 is: -21
new weight for 1 is: -161604393
new weight for 2 is: 161604521
new weight for 0 is: -21
new weight for 1 is: -161604585
new weight for 2 is: 161604713
new weight for 0 is: -21
new weight for 1 is: -161604585
new weight for 2 is: 161604713
new weight for 0 is: -21
new weight for 1 is: -161604777
new weight for 2 is: 161604905
new weight for 0 is: -21
new weight for 1 is: -161604777
new weight for 2 is: 161604905
new weight for 0 is: -21
new weight for 1 is: -161579165
new weight for 2 is: 161579293
new weight for 0 is: -21
new weight for 1 is: -161579165
new weight for 2 is: 161579293
new weight for 0 is: -21
new weight for 1 is: -161604969
new weight for 2 is: 161605097
new weight for 0 is: -21
new weight for 1 is: -161604969
new weight for 2 is: 161605097
new weight for 0 is: -21
new weight for 1 is: -161605161
new weight for 2 is: 161605289
new weight for 0 is: -21
new weight for 1 is: -161605161
new weight for 2 is: 161605289
new weight for 0 is: -21
new weight for 1 is: -161605161
new weight for 2 is: 161605289
new weight for 0 is: -21
new weight for 1 is: -161605161
new weight for 2 is: 161605289
new weight for 0 is: -21
new weight for 1 is: -161605353
new weight for 2 is: 161605481
new weight for 0 is: -21
new weight for 1 is: -161605353
new weight for 2 is: 161605481
new weight for 0 is: -21
new weight for 1 is: -161605353
new weight for 2 is: 161605481
new weight for 0 is: -21
new weight for 1 is: -161605353
new weight for 2 is: 161605481
new weight for 0 is: -21
new weight for 1 is: -161605545
new weight for 2 is: 161605673
new weight for 0 is: -21
new weight for 1 is: -161605545
new weight for 2 is: 161605673
new weight for 0 is: -21
new weight for 1 is: -161605737
new weight for 2 is: 161605865
new weight for 0 is: -21
new weight for 1 is: -161605737
new weight for 2 is: 161605865
new weight for 0 is: -21
new weight for 1 is: -161606032
new weight for 2 is: 161606154
new weight for 0 is: -21
new weight for 1 is: -161606032
new weight for 2 is: 161606154
new weight for 0 is: -21
new weight for 1 is: -161606224
new weight for 2 is: 161606346
new weight for 0 is: -21
new weight for 1 is: -161606224
new weight for 2 is: 161606346
new weight for 0 is: -21
new weight for 1 is: -161606488
new weight for 2 is: 161606602
new weight for 0 is: -21
new weight for 1 is: -161606488
new weight for 2 is: 161606602
new weight for 0 is: -21
new weight for 1 is: -161606488
new weight for 2 is: 161606602
new weight for 0 is: -21
new weight for 1 is: -161606488
new weight for 2 is: 161606602
new weight for 0 is: -21
new weight for 1 is: -161606488
new weight for 2 is: 161606602
new weight for 0 is: -21
new weight for 1 is: -161606488
new weight for 2 is: 161606602
new weight for 0 is: -21
new weight for 1 is: -161606680
new weight for 2 is: 161606794
new weight for 0 is: -21
new weight for 1 is: -161606680
new weight for 2 is: 161606794
new weight for 0 is: -21
new weight for 1 is: -161606872
new weight for 2 is: 161606986
new weight for 0 is: -21
new weight for 1 is: -161606872
new weight for 2 is: 161606986
new weight for 0 is: -21
new weight for 1 is: -161607064
new weight for 2 is: 161607178
new weight for 0 is: -21
new weight for 1 is: -161607064
new weight for 2 is: 161607178
new weight for 0 is: -21
new weight for 1 is: -161607273
new weight for 2 is: 161607401
new weight for 0 is: -21
new weight for 1 is: -161607273
new weight for 2 is: 161607401
new weight for 0 is: -21
new weight for 1 is: -161607465
new weight for 2 is: 161607593
new weight for 0 is: -21
new weight for 1 is: -161607465
new weight for 2 is: 161607593
new weight for 0 is: -21
new weight for 1 is: -161607657
new weight for 2 is: 161607785
new weight for 0 is: -21
new weight for 1 is: -161607657
new weight for 2 is: 161607785
new weight for 0 is: -21
new weight for 1 is: -161607849
new weight for 2 is: 161607977
new weight for 0 is: -21
new weight for 1 is: -161607849
new weight for 2 is: 161607977
new weight for 0 is: -21
new weight for 1 is: -161607849
new weight for 2 is: 161607977
new weight for 0 is: -21
new weight for 1 is: -161607849
new weight for 2 is: 161607977
new weight for 0 is: -21
new weight for 1 is: -161607849
new weight for 2 is: 161607977
new weight for 0 is: -21
new weight for 1 is: -161607849
new weight for 2 is: 161607977
new weight for 0 is: -21
new weight for 1 is: -161607849
new weight for 2 is: 161607977
new weight for 0 is: -21
new weight for 1 is: -161607849
new weight for 2 is: 161607977
new weight for 0 is: -21
new weight for 1 is: -161608144
new weight for 2 is: 161608266
new weight for 0 is: -21
new weight for 1 is: -161608144
new weight for 2 is: 161608266
new weight for 0 is: -21
new weight for 1 is: -161579741
new weight for 2 is: 161579869
new weight for 0 is: -21
new weight for 1 is: -161579741
new weight for 2 is: 161579869
new weight for 0 is: -21
new weight for 1 is: -161608600
new weight for 2 is: 161608714
new weight for 0 is: -21
new weight for 1 is: -161608600
new weight for 2 is: 161608714
new weight for 0 is: -21
new weight for 1 is: -161608792
new weight for 2 is: 161608906
new weight for 0 is: -21
new weight for 1 is: -161608792
new weight for 2 is: 161608906
new weight for 0 is: -21
new weight for 1 is: -161608792
new weight for 2 is: 161608906
new weight for 0 is: -21
new weight for 1 is: -161608792
new weight for 2 is: 161608906
new weight for 0 is: -21
new weight for 1 is: -161608916
new weight for 2 is: 161609044
new weight for 0 is: -21
new weight for 1 is: -161608916
new weight for 2 is: 161609044
new weight for 0 is: -21
new weight for 1 is: -161609108
new weight for 2 is: 161609236
new weight for 0 is: -21
new weight for 1 is: -161609108
new weight for 2 is: 161609236
new weight for 0 is: -21
new weight for 1 is: -161609108
new weight for 2 is: 161609236
new weight for 0 is: -21
new weight for 1 is: -161609108
new weight for 2 is: 161609236
new weight for 0 is: -21
new weight for 1 is: -161609108
new weight for 2 is: 161609236
new weight for 0 is: -21
new weight for 1 is: -161609108
new weight for 2 is: 161609236
new weight for 0 is: -21
new weight for 1 is: -161609108
new weight for 2 is: 161609236
new weight for 0 is: -21
new weight for 1 is: -161609108
new weight for 2 is: 161609236
new weight for 0 is: -21
new weight for 1 is: -161609300
new weight for 2 is: 161609428
new weight for 0 is: -21
new weight for 1 is: -161609300
new weight for 2 is: 161609428
new weight for 0 is: -21
new weight for 1 is: -161609577
new weight for 2 is: 161609705
new weight for 0 is: -21
new weight for 1 is: -161609577
new weight for 2 is: 161609705
new weight for 0 is: -21
new weight for 1 is: -161609872
new weight for 2 is: 161609994
new weight for 0 is: -21
new weight for 1 is: -161609872
new weight for 2 is: 161609994
new weight for 0 is: -21
new weight for 1 is: -161610064
new weight for 2 is: 161610186
new weight for 0 is: -21
new weight for 1 is: -161610064
new weight for 2 is: 161610186
new weight for 0 is: -21
new weight for 1 is: -161610256
new weight for 2 is: 161610378
new weight for 0 is: -21
new weight for 1 is: -161610256
new weight for 2 is: 161610378
new weight for 0 is: -21
new weight for 1 is: -161580061
new weight for 2 is: 161580189
new weight for 0 is: -21
new weight for 1 is: -161580061
new weight for 2 is: 161580189
new weight for 0 is: -21
new weight for 1 is: -161580061
new weight for 2 is: 161580189
new weight for 0 is: -21
new weight for 1 is: -161580061
new weight for 2 is: 161580189
new weight for 0 is: -21
new weight for 1 is: -161610640
new weight for 2 is: 161610762
new weight for 0 is: -21
new weight for 1 is: -161610640
new weight for 2 is: 161610762
new weight for 0 is: -21
new weight for 1 is: -161611028
new weight for 2 is: 161611156
new weight for 0 is: -21
new weight for 1 is: -161611028
new weight for 2 is: 161611156
new weight for 0 is: -21
new weight for 1 is: -161611028
new weight for 2 is: 161611156
new weight for 0 is: -21
new weight for 1 is: -161611028
new weight for 2 is: 161611156
new weight for 0 is: -21
new weight for 1 is: -161611288
new weight for 2 is: 161611402
new weight for 0 is: -21
new weight for 1 is: -161611288
new weight for 2 is: 161611402
new weight for 0 is: -21
new weight for 1 is: -161611305
new weight for 2 is: 161611433
new weight for 0 is: -21
new weight for 1 is: -161611305
new weight for 2 is: 161611433
new weight for 0 is: -21
new weight for 1 is: -161611497
new weight for 2 is: 161611625
new weight for 0 is: -21
new weight for 1 is: -161611497
new weight for 2 is: 161611625
new weight for 0 is: -21
new weight for 1 is: -161611497
new weight for 2 is: 161611625
new weight for 0 is: -21
new weight for 1 is: -161611497
new weight for 2 is: 161611625
new weight for 0 is: -21
new weight for 1 is: -161611792
new weight for 2 is: 161611914
new weight for 0 is: -21
new weight for 1 is: -161611792
new weight for 2 is: 161611914
new weight for 0 is: -21
new weight for 1 is: -161574068
new weight for 2 is: 161574196
new weight for 0 is: -21
new weight for 1 is: -161574068
new weight for 2 is: 161574196
new weight for 0 is: -21
new weight for 1 is: -161574068
new weight for 2 is: 161574196
new weight for 0 is: -21
new weight for 1 is: -161574068
new weight for 2 is: 161574196
new weight for 0 is: -21
new weight for 1 is: -161611984
new weight for 2 is: 161612106
new weight for 0 is: -21
new weight for 1 is: -161611984
new weight for 2 is: 161612106
new weight for 0 is: -21
new weight for 1 is: -161612176
new weight for 2 is: 161612298
new weight for 0 is: -21
new weight for 1 is: -161612176
new weight for 2 is: 161612298
new weight for 0 is: -21
new weight for 1 is: -161612176
new weight for 2 is: 161612298
new weight for 0 is: -21
new weight for 1 is: -161612176
new weight for 2 is: 161612298
new weight for 0 is: -21
new weight for 1 is: -161612440
new weight for 2 is: 161612554
new weight for 0 is: -21
new weight for 1 is: -161612440
new weight for 2 is: 161612554
new weight for 0 is: -21
new weight for 1 is: -161612440
new weight for 2 is: 161612554
new weight for 0 is: -21
new weight for 1 is: -161612440
new weight for 2 is: 161612554
new weight for 0 is: -21
new weight for 1 is: -161612632
new weight for 2 is: 161612746
new weight for 0 is: -21
new weight for 1 is: -161612632
new weight for 2 is: 161612746
new weight for 0 is: -21
new weight for 1 is: -161612824
new weight for 2 is: 161612938
new weight for 0 is: -21
new weight for 1 is: -161612824
new weight for 2 is: 161612938
new weight for 0 is: -21
new weight for 1 is: -161612948
new weight for 2 is: 161613076
new weight for 0 is: -21
new weight for 1 is: -161612948
new weight for 2 is: 161613076
new weight for 0 is: -21
new weight for 1 is: -161613225
new weight for 2 is: 161613353
new weight for 0 is: -21
new weight for 1 is: -161613225
new weight for 2 is: 161613353
new weight for 0 is: -21
new weight for 1 is: -161613417
new weight for 2 is: 161613545
new weight for 0 is: -21
new weight for 1 is: -161613417
new weight for 2 is: 161613545
new weight for 0 is: -21
new weight for 1 is: -161613609
new weight for 2 is: 161613737
new weight for 0 is: -21
new weight for 1 is: -161613609
new weight for 2 is: 161613737
new weight for 0 is: -21
new weight for 1 is: -161613609
new weight for 2 is: 161613737
new weight for 0 is: -21
new weight for 1 is: -161613609
new weight for 2 is: 161613737
new weight for 0 is: -21
new weight for 1 is: -161613801
new weight for 2 is: 161613929
new weight for 0 is: -21
new weight for 1 is: -161613801
new weight for 2 is: 161613929
new weight for 0 is: -21
new weight for 1 is: -161613801
new weight for 2 is: 161613929
new weight for 0 is: -21
new weight for 1 is: -161613801
new weight for 2 is: 161613929
new weight for 0 is: -21
new weight for 1 is: -161614096
new weight for 2 is: 161614218
new weight for 0 is: -21
new weight for 1 is: -161614096
new weight for 2 is: 161614218
new weight for 0 is: -21
new weight for 1 is: -161614377
new weight for 2 is: 161614505
new weight for 0 is: -21
new weight for 1 is: -161614377
new weight for 2 is: 161614505
new weight for 0 is: -21
new weight for 1 is: -161614744
new weight for 2 is: 161614858
new weight for 0 is: -21
new weight for 1 is: -161614744
new weight for 2 is: 161614858
new weight for 0 is: -21
new weight for 1 is: -161614744
new weight for 2 is: 161614858
new weight for 0 is: -21
new weight for 1 is: -161614744
new weight for 2 is: 161614858
new weight for 0 is: -21
new weight for 1 is: -161615080
new weight for 2 is: 161615178
new weight for 0 is: -21
new weight for 1 is: -161615080
new weight for 2 is: 161615178
new weight for 0 is: -21
new weight for 1 is: -161615248
new weight for 2 is: 161615370
new weight for 0 is: -21
new weight for 1 is: -161615248
new weight for 2 is: 161615370
new weight for 0 is: -21
new weight for 1 is: -161615248
new weight for 2 is: 161615370
new weight for 0 is: -21
new weight for 1 is: -161615248
new weight for 2 is: 161615370
new weight for 0 is: -21
new weight for 1 is: -161615248
new weight for 2 is: 161615370
new weight for 0 is: -21
new weight for 1 is: -161615248
new weight for 2 is: 161615370
new weight for 0 is: -21
new weight for 1 is: -161615248
new weight for 2 is: 161615370
new weight for 0 is: -21
new weight for 1 is: -161615248
new weight for 2 is: 161615370
new weight for 0 is: -21
new weight for 1 is: -161615440
new weight for 2 is: 161615562
new weight for 0 is: -21
new weight for 1 is: -161615440
new weight for 2 is: 161615562
new weight for 0 is: -21
new weight for 1 is: -161615440
new weight for 2 is: 161615562
new weight for 0 is: -21
new weight for 1 is: -161615440
new weight for 2 is: 161615562
new weight for 0 is: -21
new weight for 1 is: -161615440
new weight for 2 is: 161615562
new weight for 0 is: -21
new weight for 1 is: -161615440
new weight for 2 is: 161615562
new weight for 0 is: -21
new weight for 1 is: -161615440
new weight for 2 is: 161615562
new weight for 0 is: -21
new weight for 1 is: -161615440
new weight for 2 is: 161615562
new weight for 0 is: -21
new weight for 1 is: -161615632
new weight for 2 is: 161615754
new weight for 0 is: -21
new weight for 1 is: -161615632
new weight for 2 is: 161615754
new weight for 0 is: -21
new weight for 1 is: -161616208
new weight for 2 is: 161616330
new weight for 0 is: -21
new weight for 1 is: -161616208
new weight for 2 is: 161616330
new weight for 0 is: -21
new weight for 1 is: -161616208
new weight for 2 is: 161616330
new weight for 0 is: -21
new weight for 1 is: -161616208
new weight for 2 is: 161616330
new weight for 0 is: -21
new weight for 1 is: -161616489
new weight for 2 is: 161616617
new weight for 0 is: -21
new weight for 1 is: -161616489
new weight for 2 is: 161616617
new weight for 0 is: -21
new weight for 1 is: -161616489
new weight for 2 is: 161616617
new weight for 0 is: -21
new weight for 1 is: -161616489
new weight for 2 is: 161616617
new weight for 0 is: -21
new weight for 1 is: -161616784
new weight for 2 is: 161616906
new weight for 0 is: -21
new weight for 1 is: -161616784
new weight for 2 is: 161616906
new weight for 0 is: -21
new weight for 1 is: -161616784
new weight for 2 is: 161616906
new weight for 0 is: -21
new weight for 1 is: -161616784
new weight for 2 is: 161616906
new weight for 0 is: -21
new weight for 1 is: -161617360
new weight for 2 is: 161617482
new weight for 0 is: -21
new weight for 1 is: -161617360
new weight for 2 is: 161617482
new weight for 0 is: -21
new weight for 1 is: -161616976
new weight for 2 is: 161617098
new weight for 0 is: -21
new weight for 1 is: -161616976
new weight for 2 is: 161617098
new weight for 0 is: -21
new weight for 1 is: -161617744
new weight for 2 is: 161617866
new weight for 0 is: -21
new weight for 1 is: -161617744
new weight for 2 is: 161617866
new weight for 0 is: -21
new weight for 1 is: -161617744
new weight for 2 is: 161617866
new weight for 0 is: -21
new weight for 1 is: -161617744
new weight for 2 is: 161617866
new weight for 0 is: -21
new weight for 1 is: -161617744
new weight for 2 is: 161617866
new weight for 0 is: -21
new weight for 1 is: -161617744
new weight for 2 is: 161617866
new weight for 0 is: -21
new weight for 1 is: -161618047
new weight for 2 is: 161618175
new weight for 0 is: -21
new weight for 1 is: -161618047
new weight for 2 is: 161618175
new weight for 0 is: -21
new weight for 1 is: -161618047
new weight for 2 is: 161618175
new weight for 0 is: -21
new weight for 1 is: -161618047
new weight for 2 is: 161618175
new weight for 0 is: -21
new weight for 1 is: -161618409
new weight for 2 is: 161618537
new weight for 0 is: -21
new weight for 1 is: -161618409
new weight for 2 is: 161618537
new weight for 0 is: -21
new weight for 1 is: -161618623
new weight for 2 is: 161618751
new weight for 0 is: -21
new weight for 1 is: -161618623
new weight for 2 is: 161618751
new weight for 0 is: -21
new weight for 1 is: -161618896
new weight for 2 is: 161619018
new weight for 0 is: -21
new weight for 1 is: -161618896
new weight for 2 is: 161619018
new weight for 0 is: -21
new weight for 1 is: -161618896
new weight for 2 is: 161619018
new weight for 0 is: -21
new weight for 1 is: -161618896
new weight for 2 is: 161619018
new weight for 0 is: -21
new weight for 1 is: -161619160
new weight for 2 is: 161619274
new weight for 0 is: -21
new weight for 1 is: -161619160
new weight for 2 is: 161619274
new weight for 0 is: -21
new weight for 1 is: -161619160
new weight for 2 is: 161619274
new weight for 0 is: -21
new weight for 1 is: -161619160
new weight for 2 is: 161619274
new weight for 0 is: -21
new weight for 1 is: -161619160
new weight for 2 is: 161619274
new weight for 0 is: -21
new weight for 1 is: -161619160
new weight for 2 is: 161619274
new weight for 0 is: -21
new weight for 1 is: -161619369
new weight for 2 is: 161619497
new weight for 0 is: -21
new weight for 1 is: -161619369
new weight for 2 is: 161619497
new weight for 0 is: -21
new weight for 1 is: -161619561
new weight for 2 is: 161619689
new weight for 0 is: -21
new weight for 1 is: -161619561
new weight for 2 is: 161619689
new weight for 0 is: -21
new weight for 1 is: -161581661
new weight for 2 is: 161581789
new weight for 0 is: -21
new weight for 1 is: -161581661
new weight for 2 is: 161581789
new weight for 0 is: -21
new weight for 1 is: -161619945
new weight for 2 is: 161620073
new weight for 0 is: -21
new weight for 1 is: -161619945
new weight for 2 is: 161620073
new weight for 0 is: -21
new weight for 1 is: -161620137
new weight for 2 is: 161620265
new weight for 0 is: -21
new weight for 1 is: -161620137
new weight for 2 is: 161620265
new weight for 0 is: -21
new weight for 1 is: -161620432
new weight for 2 is: 161620554
new weight for 0 is: -21
new weight for 1 is: -161620432
new weight for 2 is: 161620554
new weight for 0 is: -21
new weight for 1 is: -161620432
new weight for 2 is: 161620554
new weight for 0 is: -21
new weight for 1 is: -161620432
new weight for 2 is: 161620554
new weight for 0 is: -21
new weight for 1 is: -161620624
new weight for 2 is: 161620746
new weight for 0 is: -21
new weight for 1 is: -161620624
new weight for 2 is: 161620746
new weight for 0 is: -21
new weight for 1 is: -161620624
new weight for 2 is: 161620746
new weight for 0 is: -21
new weight for 1 is: -161620624
new weight for 2 is: 161620746
new weight for 0 is: -21
new weight for 1 is: -161620820
new weight for 2 is: 161620948
new weight for 0 is: -21
new weight for 1 is: -161620820
new weight for 2 is: 161620948
new weight for 0 is: -21
new weight for 1 is: -161621119
new weight for 2 is: 161621247
new weight for 0 is: -21
new weight for 1 is: -161621119
new weight for 2 is: 161621247
new weight for 0 is: -21
new weight for 1 is: -161621584
new weight for 2 is: 161621706
new weight for 0 is: -21
new weight for 1 is: -161621584
new weight for 2 is: 161621706
new weight for 0 is: -21
new weight for 1 is: -161621968
new weight for 2 is: 161622090
new weight for 0 is: -21
new weight for 1 is: -161621968
new weight for 2 is: 161622090
new weight for 0 is: -21
new weight for 1 is: -161622160
new weight for 2 is: 161622282
new weight for 0 is: -21
new weight for 1 is: -161622160
new weight for 2 is: 161622282
new weight for 0 is: -21
new weight for 1 is: -161622160
new weight for 2 is: 161622282
new weight for 0 is: -21
new weight for 1 is: -161622160
new weight for 2 is: 161622282
new weight for 0 is: -21
new weight for 1 is: -161622352
new weight for 2 is: 161622474
new weight for 0 is: -21
new weight for 1 is: -161622352
new weight for 2 is: 161622474
new weight for 0 is: -21
new weight for 1 is: -161622352
new weight for 2 is: 161622474
new weight for 0 is: -21
new weight for 1 is: -161622352
new weight for 2 is: 161622474
new weight for 0 is: -21
new weight for 1 is: -161582109
new weight for 2 is: 161582237
new weight for 0 is: -21
new weight for 1 is: -161582109
new weight for 2 is: 161582237
new weight for 0 is: -21
new weight for 1 is: -161574900
new weight for 2 is: 161575028
new weight for 0 is: -21
new weight for 1 is: -161574900
new weight for 2 is: 161575028
new weight for 0 is: -21
new weight for 1 is: -161622880
new weight for 2 is: 161622986
new weight for 0 is: -21
new weight for 1 is: -161622880
new weight for 2 is: 161622986
new weight for 0 is: -21
new weight for 1 is: -161623017
new weight for 2 is: 161623145
new weight for 0 is: -21
new weight for 1 is: -161623017
new weight for 2 is: 161623145
new weight for 0 is: -21
new weight for 1 is: -161623209
new weight for 2 is: 161623337
new weight for 0 is: -21
new weight for 1 is: -161623209
new weight for 2 is: 161623337
new weight for 0 is: -21
new weight for 1 is: -161623209
new weight for 2 is: 161623337
new weight for 0 is: -21
new weight for 1 is: -161623209
new weight for 2 is: 161623337
new weight for 0 is: -21
new weight for 1 is: -161623504
new weight for 2 is: 161623626
new weight for 0 is: -21
new weight for 1 is: -161623504
new weight for 2 is: 161623626
new weight for 0 is: -21
new weight for 1 is: -161623696
new weight for 2 is: 161623818
new weight for 0 is: -21
new weight for 1 is: -161623696
new weight for 2 is: 161623818
new weight for 0 is: -21
new weight for 1 is: -161582301
new weight for 2 is: 161582429
new weight for 0 is: -21
new weight for 1 is: -161582301
new weight for 2 is: 161582429
new weight for 0 is: -21
new weight for 1 is: -161623888
new weight for 2 is: 161624010
new weight for 0 is: -21
new weight for 1 is: -161623888
new weight for 2 is: 161624010
new weight for 0 is: -21
new weight for 1 is: -161623888
new weight for 2 is: 161624010
new weight for 0 is: -21
new weight for 1 is: -161623888
new weight for 2 is: 161624010
new weight for 0 is: -21
new weight for 1 is: -161624080
new weight for 2 is: 161624202
new weight for 0 is: -21
new weight for 1 is: -161624080
new weight for 2 is: 161624202
new weight for 0 is: -21
new weight for 1 is: -161624272
new weight for 2 is: 161624394
new weight for 0 is: -21
new weight for 1 is: -161624272
new weight for 2 is: 161624394
new weight for 0 is: -21
new weight for 1 is: -161624464
new weight for 2 is: 161624586
new weight for 0 is: -21
new weight for 1 is: -161624464
new weight for 2 is: 161624586
new weight for 0 is: -21
new weight for 1 is: -161624464
new weight for 2 is: 161624586
new weight for 0 is: -21
new weight for 1 is: -161624464
new weight for 2 is: 161624586
new weight for 0 is: -21
new weight for 1 is: -161624536
new weight for 2 is: 161624650
new weight for 0 is: -21
new weight for 1 is: -161624536
new weight for 2 is: 161624650
new weight for 0 is: -21
new weight for 1 is: -161624660
new weight for 2 is: 161624788
new weight for 0 is: -21
new weight for 1 is: -161624660
new weight for 2 is: 161624788
new weight for 0 is: -21
new weight for 1 is: -161625040
new weight for 2 is: 161625162
new weight for 0 is: -21
new weight for 1 is: -161625040
new weight for 2 is: 161625162
new weight for 0 is: -21
new weight for 1 is: -161625040
new weight for 2 is: 161625162
new weight for 0 is: -21
new weight for 1 is: -161625040
new weight for 2 is: 161625162
new weight for 0 is: -21
new weight for 1 is: -161625040
new weight for 2 is: 161625162
new weight for 0 is: -21
new weight for 1 is: -161625040
new weight for 2 is: 161625162
new weight for 0 is: -21
new weight for 1 is: -161625040
new weight for 2 is: 161625162
new weight for 0 is: -21
new weight for 1 is: -161625040
new weight for 2 is: 161625162
new weight for 0 is: -21
new weight for 1 is: -161625232
new weight for 2 is: 161625354
new weight for 0 is: -21
new weight for 1 is: -161625232
new weight for 2 is: 161625354
new weight for 0 is: -21
new weight for 1 is: -161625232
new weight for 2 is: 161625354
new weight for 0 is: -21
new weight for 1 is: -161625232
new weight for 2 is: 161625354
new weight for 0 is: -21
new weight for 1 is: -161625424
new weight for 2 is: 161625546
new weight for 0 is: -21
new weight for 1 is: -161625424
new weight for 2 is: 161625546
new weight for 0 is: -21
new weight for 1 is: -161625424
new weight for 2 is: 161625546
new weight for 0 is: -21
new weight for 1 is: -161625424
new weight for 2 is: 161625546
new weight for 0 is: -21
new weight for 1 is: -161625616
new weight for 2 is: 161625738
new weight for 0 is: -21
new weight for 1 is: -161625616
new weight for 2 is: 161625738
new weight for 0 is: -21
new weight for 1 is: -161625808
new weight for 2 is: 161625930
new weight for 0 is: -21
new weight for 1 is: -161625808
new weight for 2 is: 161625930
new weight for 0 is: -21
new weight for 1 is: -161626072
new weight for 2 is: 161626186
new weight for 0 is: -21
new weight for 1 is: -161626072
new weight for 2 is: 161626186
new weight for 0 is: -21
new weight for 1 is: -161626281
new weight for 2 is: 161626409
new weight for 0 is: -21
new weight for 1 is: -161626281
new weight for 2 is: 161626409
new weight for 0 is: -21
new weight for 1 is: -161626281
new weight for 2 is: 161626409
new weight for 0 is: -21
new weight for 1 is: -161626281
new weight for 2 is: 161626409
new weight for 0 is: -21
new weight for 1 is: -161626281
new weight for 2 is: 161626409
new weight for 0 is: -21
new weight for 1 is: -161626281
new weight for 2 is: 161626409
new weight for 0 is: -21
new weight for 1 is: -161626281
new weight for 2 is: 161626409
new weight for 0 is: -21
new weight for 1 is: -161626281
new weight for 2 is: 161626409
new weight for 0 is: -21
new weight for 1 is: -161626857
new weight for 2 is: 161626985
new weight for 0 is: -21
new weight for 1 is: -161626857
new weight for 2 is: 161626985
new weight for 0 is: -21
new weight for 1 is: -161626857
new weight for 2 is: 161626985
new weight for 0 is: -21
new weight for 1 is: -161626857
new weight for 2 is: 161626985
new weight for 0 is: -21
new weight for 1 is: -161626473
new weight for 2 is: 161626601
new weight for 0 is: -21
new weight for 1 is: -161626473
new weight for 2 is: 161626601
new weight for 0 is: -21
new weight for 1 is: -161627263
new weight for 2 is: 161627391
new weight for 0 is: -21
new weight for 1 is: -161627263
new weight for 2 is: 161627391
new weight for 0 is: -21
new weight for 1 is: -161627433
new weight for 2 is: 161627561
new weight for 0 is: -21
new weight for 1 is: -161627433
new weight for 2 is: 161627561
new weight for 0 is: -21
new weight for 1 is: -161627625
new weight for 2 is: 161627753
new weight for 0 is: -21
new weight for 1 is: -161627625
new weight for 2 is: 161627753
new weight for 0 is: -21
new weight for 1 is: -161627920
new weight for 2 is: 161628042
new weight for 0 is: -21
new weight for 1 is: -161627920
new weight for 2 is: 161628042
new weight for 0 is: -21
new weight for 1 is: -161627920
new weight for 2 is: 161628042
new weight for 0 is: -21
new weight for 1 is: -161627920
new weight for 2 is: 161628042
new weight for 0 is: -21
new weight for 1 is: -161628112
new weight for 2 is: 161628234
new weight for 0 is: -21
new weight for 1 is: -161628112
new weight for 2 is: 161628234
new weight for 0 is: -21
new weight for 1 is: -161628304
new weight for 2 is: 161628426
new weight for 0 is: -21
new weight for 1 is: -161628304
new weight for 2 is: 161628426
new weight for 0 is: -21
new weight for 1 is: -161628688
new weight for 2 is: 161628810
new weight for 0 is: -21
new weight for 1 is: -161628688
new weight for 2 is: 161628810
new weight for 0 is: -21
new weight for 1 is: -161583133
new weight for 2 is: 161583261
new weight for 0 is: -21
new weight for 1 is: -161583133
new weight for 2 is: 161583261
new weight for 0 is: -21
new weight for 1 is: -161628884
new weight for 2 is: 161629012
new weight for 0 is: -21
new weight for 1 is: -161628884
new weight for 2 is: 161629012
new weight for 0 is: -21
new weight for 1 is: -161629161
new weight for 2 is: 161629289
new weight for 0 is: -21
new weight for 1 is: -161629161
new weight for 2 is: 161629289
new weight for 0 is: -21
new weight for 1 is: -161629353
new weight for 2 is: 161629481
new weight for 0 is: -21
new weight for 1 is: -161629353
new weight for 2 is: 161629481
new weight for 0 is: -21
new weight for 1 is: -161629353
new weight for 2 is: 161629481
new weight for 0 is: -21
new weight for 1 is: -161629353
new weight for 2 is: 161629481
new weight for 0 is: -21
new weight for 1 is: -161629353
new weight for 2 is: 161629481
new weight for 0 is: -21
new weight for 1 is: -161629353
new weight for 2 is: 161629481
new weight for 0 is: -21
new weight for 1 is: -161629353
new weight for 2 is: 161629481
new weight for 0 is: -21
new weight for 1 is: -161629353
new weight for 2 is: 161629481
new weight for 0 is: -21
new weight for 1 is: -161583325
new weight for 2 is: 161583453
new weight for 0 is: -21
new weight for 1 is: -161583325
new weight for 2 is: 161583453
new weight for 0 is: -21
new weight for 1 is: -161629929
new weight for 2 is: 161630057
new weight for 0 is: -21
new weight for 1 is: -161629929
new weight for 2 is: 161630057
new weight for 0 is: -21
new weight for 1 is: -161629929
new weight for 2 is: 161630057
new weight for 0 is: -21
new weight for 1 is: -161629929
new weight for 2 is: 161630057
new weight for 0 is: -21
new weight for 1 is: -161630416
new weight for 2 is: 161630538
new weight for 0 is: -21
new weight for 1 is: -161630416
new weight for 2 is: 161630538
new weight for 0 is: -21
new weight for 1 is: -161630416
new weight for 2 is: 161630538
new weight for 0 is: -21
new weight for 1 is: -161630416
new weight for 2 is: 161630538
new weight for 0 is: -21
new weight for 1 is: -161630612
new weight for 2 is: 161630740
new weight for 0 is: -21
new weight for 1 is: -161630612
new weight for 2 is: 161630740
new weight for 0 is: -21
new weight for 1 is: -161630697
new weight for 2 is: 161630825
new weight for 0 is: -21
new weight for 1 is: -161630697
new weight for 2 is: 161630825
new weight for 0 is: -21
new weight for 1 is: -161631184
new weight for 2 is: 161631306
new weight for 0 is: -21
new weight for 1 is: -161631184
new weight for 2 is: 161631306
new weight for 0 is: -21
new weight for 1 is: -161631184
new weight for 2 is: 161631306
new weight for 0 is: -21
new weight for 1 is: -161631184
new weight for 2 is: 161631306
new weight for 0 is: -21
new weight for 1 is: -161631376
new weight for 2 is: 161631498
new weight for 0 is: -21
new weight for 1 is: -161631376
new weight for 2 is: 161631498
new weight for 0 is: -21
new weight for 1 is: -161631376
new weight for 2 is: 161631498
new weight for 0 is: -21
new weight for 1 is: -161631376
new weight for 2 is: 161631498
new weight for 0 is: -21
new weight for 1 is: -161631568
new weight for 2 is: 161631690
new weight for 0 is: -21
new weight for 1 is: -161631568
new weight for 2 is: 161631690
new weight for 0 is: -21
new weight for 1 is: -161631568
new weight for 2 is: 161631690
new weight for 0 is: -21
new weight for 1 is: -161631568
new weight for 2 is: 161631690
new weight for 0 is: -21
new weight for 1 is: -161631568
new weight for 2 is: 161631690
new weight for 0 is: -21
new weight for 1 is: -161631568
new weight for 2 is: 161631690
new weight for 0 is: -21
new weight for 1 is: -161631849
new weight for 2 is: 161631977
new weight for 0 is: -21
new weight for 1 is: -161631849
new weight for 2 is: 161631977
new weight for 0 is: -21
new weight for 1 is: -161632041
new weight for 2 is: 161632169
new weight for 0 is: -21
new weight for 1 is: -161632041
new weight for 2 is: 161632169
new weight for 0 is: -21
new weight for 1 is: -161632336
new weight for 2 is: 161632458
new weight for 0 is: -21
new weight for 1 is: -161632336
new weight for 2 is: 161632458
new weight for 0 is: -21
new weight for 1 is: -161583773
new weight for 2 is: 161583901
new weight for 0 is: -21
new weight for 1 is: -161583773
new weight for 2 is: 161583901
new weight for 0 is: -21
new weight for 1 is: -161632792
new weight for 2 is: 161632906
new weight for 0 is: -21
new weight for 1 is: -161632792
new weight for 2 is: 161632906
new weight for 0 is: -21
new weight for 1 is: -161632984
new weight for 2 is: 161633098
new weight for 0 is: -21
new weight for 1 is: -161632984
new weight for 2 is: 161633098
new weight for 0 is: -21
new weight for 1 is: -161633104
new weight for 2 is: 161633226
new weight for 0 is: -21
new weight for 1 is: -161633104
new weight for 2 is: 161633226
new weight for 0 is: -21
new weight for 1 is: -161633104
new weight for 2 is: 161633226
new weight for 0 is: -21
new weight for 1 is: -161633104
new weight for 2 is: 161633226
new weight for 0 is: -21
new weight for 1 is: -161633296
new weight for 2 is: 161633418
new weight for 0 is: -21
new weight for 1 is: -161633296
new weight for 2 is: 161633418
new weight for 0 is: -21
new weight for 1 is: -161633296
new weight for 2 is: 161633418
new weight for 0 is: -21
new weight for 1 is: -161633296
new weight for 2 is: 161633418
new weight for 0 is: -21
new weight for 1 is: -161633296
new weight for 2 is: 161633418
new weight for 0 is: -21
new weight for 1 is: -161633296
new weight for 2 is: 161633418
new weight for 0 is: -21
new weight for 1 is: -161633488
new weight for 2 is: 161633610
new weight for 0 is: -21
new weight for 1 is: -161633488
new weight for 2 is: 161633610
new weight for 0 is: -21
new weight for 1 is: -161633752
new weight for 2 is: 161633866
new weight for 0 is: -21
new weight for 1 is: -161633752
new weight for 2 is: 161633866
new weight for 0 is: -21
new weight for 1 is: -161633876
new weight for 2 is: 161634004
new weight for 0 is: -21
new weight for 1 is: -161633876
new weight for 2 is: 161634004
new weight for 0 is: -21
new weight for 1 is: -161634153
new weight for 2 is: 161634281
new weight for 0 is: -21
new weight for 1 is: -161634153
new weight for 2 is: 161634281
new weight for 0 is: -21
new weight for 1 is: -161634153
new weight for 2 is: 161634281
new weight for 0 is: -21
new weight for 1 is: -161634153
new weight for 2 is: 161634281
new weight for 0 is: -21
new weight for 1 is: -161634153
new weight for 2 is: 161634281
new weight for 0 is: -21
new weight for 1 is: -161634153
new weight for 2 is: 161634281
new weight for 0 is: -21
new weight for 1 is: -161634448
new weight for 2 is: 161634570
new weight for 0 is: -21
new weight for 1 is: -161634448
new weight for 2 is: 161634570
new weight for 0 is: -21
new weight for 1 is: -161634640
new weight for 2 is: 161634762
new weight for 0 is: -21
new weight for 1 is: -161634640
new weight for 2 is: 161634762
new weight for 0 is: -21
new weight for 1 is: -161634644
new weight for 2 is: 161634772
new weight for 0 is: -21
new weight for 1 is: -161634644
new weight for 2 is: 161634772
new weight for 0 is: -21
new weight for 1 is: -161634836
new weight for 2 is: 161634964
new weight for 0 is: -21
new weight for 1 is: -161634836
new weight for 2 is: 161634964
new weight for 0 is: -21
new weight for 1 is: -161635096
new weight for 2 is: 161635210
new weight for 0 is: -21
new weight for 1 is: -161635096
new weight for 2 is: 161635210
new weight for 0 is: -21
new weight for 1 is: -161635096
new weight for 2 is: 161635210
new weight for 0 is: -21
new weight for 1 is: -161635096
new weight for 2 is: 161635210
new weight for 0 is: -21
new weight for 1 is: -161635305
new weight for 2 is: 161635433
new weight for 0 is: -21
new weight for 1 is: -161635305
new weight for 2 is: 161635433
new weight for 0 is: -21
new weight for 1 is: -161635864
new weight for 2 is: 161635978
new weight for 0 is: -21
new weight for 1 is: -161635864
new weight for 2 is: 161635978
new weight for 0 is: -21
new weight for 1 is: -161635988
new weight for 2 is: 161636116
new weight for 0 is: -21
new weight for 1 is: -161635988
new weight for 2 is: 161636116
new weight for 0 is: -21
new weight for 1 is: -161635988
new weight for 2 is: 161636116
new weight for 0 is: -21
new weight for 1 is: -161635988
new weight for 2 is: 161636116
new weight for 0 is: -21
new weight for 1 is: -161635988
new weight for 2 is: 161636116
new weight for 0 is: -21
new weight for 1 is: -161635988
new weight for 2 is: 161636116
new weight for 0 is: -21
new weight for 1 is: -161636248
new weight for 2 is: 161636362
new weight for 0 is: -21
new weight for 1 is: -161636248
new weight for 2 is: 161636362
new weight for 0 is: -21
new weight for 1 is: -161636265
new weight for 2 is: 161636393
new weight for 0 is: -21
new weight for 1 is: -161636265
new weight for 2 is: 161636393
new weight for 0 is: -21
new weight for 1 is: -161584413
new weight for 2 is: 161584541
new weight for 0 is: -21
new weight for 1 is: -161584413
new weight for 2 is: 161584541
new weight for 0 is: -21
new weight for 1 is: -161584413
new weight for 2 is: 161584541
new weight for 0 is: -21
new weight for 1 is: -161584413
new weight for 2 is: 161584541
new weight for 0 is: -21
new weight for 1 is: -161636560
new weight for 2 is: 161636682
new weight for 0 is: -21
new weight for 1 is: -161636560
new weight for 2 is: 161636682
new weight for 0 is: -21
new weight for 1 is: -161636560
new weight for 2 is: 161636682
new weight for 0 is: -21
new weight for 1 is: -161636560
new weight for 2 is: 161636682
new weight for 0 is: -21
new weight for 1 is: -161636824
new weight for 2 is: 161636938
new weight for 0 is: -21
new weight for 1 is: -161636824
new weight for 2 is: 161636938
new weight for 0 is: -21
new weight for 1 is: -161636824
new weight for 2 is: 161636938
new weight for 0 is: -21
new weight for 1 is: -161636824
new weight for 2 is: 161636938
new weight for 0 is: -21
new weight for 1 is: -161636824
new weight for 2 is: 161636938
new weight for 0 is: -21
new weight for 1 is: -161636824
new weight for 2 is: 161636938
new weight for 0 is: -21
new weight for 1 is: -161637033
new weight for 2 is: 161637161
new weight for 0 is: -21
new weight for 1 is: -161637033
new weight for 2 is: 161637161
new weight for 0 is: -21
new weight for 1 is: -161637033
new weight for 2 is: 161637161
new weight for 0 is: -21
new weight for 1 is: -161637033
new weight for 2 is: 161637161
new weight for 0 is: -21
new weight for 1 is: -161637033
new weight for 2 is: 161637161
new weight for 0 is: -21
new weight for 1 is: -161637033
new weight for 2 is: 161637161
new weight for 0 is: -21
new weight for 1 is: -161637225
new weight for 2 is: 161637353
new weight for 0 is: -21
new weight for 1 is: -161637225
new weight for 2 is: 161637353
new weight for 0 is: -21
new weight for 1 is: -161637609
new weight for 2 is: 161637737
new weight for 0 is: -21
new weight for 1 is: -161637609
new weight for 2 is: 161637737
new weight for 0 is: -21
new weight for 1 is: -161637904
new weight for 2 is: 161638026
new weight for 0 is: -21
new weight for 1 is: -161637904
new weight for 2 is: 161638026
new weight for 0 is: -21
new weight for 1 is: -161638288
new weight for 2 is: 161638410
new weight for 0 is: -21
new weight for 1 is: -161638288
new weight for 2 is: 161638410
new weight for 0 is: -21
new weight for 1 is: -161638288
new weight for 2 is: 161638410
new weight for 0 is: -21
new weight for 1 is: -161638288
new weight for 2 is: 161638410
new weight for 0 is: -21
new weight for 1 is: -161638288
new weight for 2 is: 161638410
new weight for 0 is: -21
new weight for 1 is: -161638288
new weight for 2 is: 161638410
new weight for 0 is: -21
new weight for 1 is: -161638569
new weight for 2 is: 161638697
new weight for 0 is: -21
new weight for 1 is: -161638569
new weight for 2 is: 161638697
new weight for 0 is: -21
new weight for 1 is: -162865172
new weight for 2 is: 162865300
new weight for 0 is: -21
new weight for 1 is: -162865172
new weight for 2 is: 162865300
new weight for 0 is: -21
new weight for 1 is: -162865172
new weight for 2 is: 162865300
new weight for 0 is: -21
new weight for 1 is: -162865172
new weight for 2 is: 162865300
new weight for 0 is: -21
new weight for 1 is: -162865172
new weight for 2 is: 162865300
new weight for 0 is: -21
new weight for 1 is: -162865172
new weight for 2 is: 162865300
new weight for 0 is: -21
new weight for 1 is: -162865172
new weight for 2 is: 162865300
new weight for 0 is: -21
new weight for 1 is: -162865172
new weight for 2 is: 162865300
new weight for 0 is: -21
new weight for 1 is: -162865172
new weight for 2 is: 162865300
new weight for 0 is: -21
new weight for 1 is: -162865172
new weight for 2 is: 162865300
new weight for 0 is: -21
new weight for 1 is: -162865172
new weight for 2 is: 162865300
new weight for 0 is: -21
new weight for 1 is: -162865172
new weight for 2 is: 162865300
new weight for 0 is: -21
new weight for 1 is: -162865140
new weight for 2 is: 162865268
new weight for 0 is: -21
new weight for 1 is: -162865140
new weight for 2 is: 162865268
new weight for 0 is: -21
new weight for 1 is: -162865112
new weight for 2 is: 162865240
new weight for 0 is: -21
new weight for 1 is: -162865112
new weight for 2 is: 162865240
new weight for 0 is: -21
new weight for 1 is: -162865148
new weight for 2 is: 162865276
new weight for 0 is: -21
new weight for 1 is: -162865148
new weight for 2 is: 162865276
new weight for 0 is: -21
new weight for 1 is: -162865150
new weight for 2 is: 162865278
new weight for 0 is: -21
new weight for 1 is: -162865150
new weight for 2 is: 162865278
new weight for 0 is: -21
new weight for 1 is: -162865124
new weight for 2 is: 162865252
new weight for 0 is: -21
new weight for 1 is: -162865124
new weight for 2 is: 162865252
new weight for 0 is: -21
new weight for 1 is: -162865172
new weight for 2 is: 162865300
new weight for 0 is: -21
new weight for 1 is: -162865172
new weight for 2 is: 162865300
new weight for 0 is: -21
new weight for 1 is: -162865124
new weight for 2 is: 162865252
new weight for 0 is: -21
new weight for 1 is: -162865124
new weight for 2 is: 162865252
new weight for 0 is: -21
new weight for 1 is: -162865138
new weight for 2 is: 162865266
new weight for 0 is: -21
new weight for 1 is: -162865138
new weight for 2 is: 162865266
new weight for 0 is: -21
new weight for 1 is: -166342897
new weight for 2 is: 166343009
new weight for 0 is: -21
new weight for 1 is: -166342897
new weight for 2 is: 166343009
new weight for 0 is: -21
new weight for 1 is: -166343073
new weight for 2 is: 166343201
new weight for 0 is: -21
new weight for 1 is: -166343073
new weight for 2 is: 166343201
new weight for 0 is: -21
new weight for 1 is: -166343649
new weight for 2 is: 166343777
new weight for 0 is: -21
new weight for 1 is: -166343649
new weight for 2 is: 166343777
new weight for 0 is: -21
new weight for 1 is: -166343841
new weight for 2 is: 166343969
new weight for 0 is: -21
new weight for 1 is: -166343841
new weight for 2 is: 166343969
new weight for 0 is: -21
new weight for 1 is: -166344225
new weight for 2 is: 166344353
new weight for 0 is: -21
new weight for 1 is: -166344225
new weight for 2 is: 166344353
new weight for 0 is: -21
new weight for 1 is: -166344417
new weight for 2 is: 166344545
new weight for 0 is: -21
new weight for 1 is: -166344417
new weight for 2 is: 166344545
new weight for 0 is: -21
new weight for 1 is: -166344609
new weight for 2 is: 166344737
new weight for 0 is: -21
new weight for 1 is: -166344609
new weight for 2 is: 166344737
new weight for 0 is: -21
new weight for 1 is: -166344609
new weight for 2 is: 166344737
new weight for 0 is: -21
new weight for 1 is: -166344609
new weight for 2 is: 166344737
new weight for 0 is: -21
new weight for 1 is: -162865173
new weight for 2 is: 162865301
new weight for 0 is: -21
new weight for 1 is: -162865173
new weight for 2 is: 162865301
new weight for 0 is: -21
new weight for 1 is: -162865173
new weight for 2 is: 162865301
new weight for 0 is: -21
new weight for 1 is: -162865173
new weight for 2 is: 162865301
new weight for 0 is: -21
new weight for 1 is: -162865173
new weight for 2 is: 162865301
new weight for 0 is: -21
new weight for 1 is: -162865173
new weight for 2 is: 162865301
new weight for 0 is: -21
new weight for 1 is: -162865173
new weight for 2 is: 162865301
new weight for 0 is: -21
new weight for 1 is: -162865173
new weight for 2 is: 162865301
new weight for 0 is: -21
new weight for 1 is: -162865156
new weight for 2 is: 162865284
new weight for 0 is: -21
new weight for 1 is: -162865156
new weight for 2 is: 162865284
new weight for 0 is: -21
new weight for 1 is: -166342831
new weight for 2 is: 166342903
new weight for 0 is: -21
new weight for 1 is: -166342831
new weight for 2 is: 166342903
new weight for 0 is: -21
new weight for 1 is: -166342831
new weight for 2 is: 166342903
new weight for 0 is: -21
new weight for 1 is: -166342831
new weight for 2 is: 166342903
new weight for 0 is: -21
new weight for 1 is: -166342831
new weight for 2 is: 166342903
new weight for 0 is: -21
new weight for 1 is: -166342831
new weight for 2 is: 166342903
new weight for 0 is: -21
new weight for 1 is: -162865177
new weight for 2 is: 162865305
new weight for 0 is: -21
new weight for 1 is: -162865177
new weight for 2 is: 162865305
new weight for 0 is: -21
new weight for 1 is: -162865172
new weight for 2 is: 162865300
new weight for 0 is: -21
new weight for 1 is: -162865172
new weight for 2 is: 162865300
new weight for 0 is: -21
new weight for 1 is: -162865172
new weight for 2 is: 162865300
new weight for 0 is: -21
new weight for 1 is: -162865172
new weight for 2 is: 162865300
new weight for 0 is: -21
new weight for 1 is: -162865177
new weight for 2 is: 162865305
new weight for 0 is: -21
new weight for 1 is: -162865177
new weight for 2 is: 162865305
new weight for 0 is: -21
new weight for 1 is: -162865116
new weight for 2 is: 162865244
new weight for 0 is: -21
new weight for 1 is: -162865116
new weight for 2 is: 162865244
new weight for 0 is: -21
new weight for 1 is: -162865116
new weight for 2 is: 162865244
new weight for 0 is: -21
new weight for 1 is: -162865116
new weight for 2 is: 162865244
new weight for 0 is: -21
new weight for 1 is: -162865140
new weight for 2 is: 162865268
new weight for 0 is: -21
new weight for 1 is: -162865140
new weight for 2 is: 162865268
new weight for 0 is: -21
new weight for 1 is: -165878918
new weight for 2 is: 165879014
new weight for 0 is: -21
new weight for 1 is: -165878918
new weight for 2 is: 165879014
new weight for 0 is: -21
new weight for 1 is: -162865172
new weight for 2 is: 162865300
new weight for 0 is: -21
new weight for 1 is: -162865172
new weight for 2 is: 162865300
new weight for 0 is: -21
new weight for 1 is: -166345918
new weight for 2 is: 166346014
new weight for 0 is: -21
new weight for 1 is: -166345918
new weight for 2 is: 166346014
new weight for 0 is: -21
new weight for 1 is: -162865120
new weight for 2 is: 162865248
new weight for 0 is: -21
new weight for 1 is: -162865120
new weight for 2 is: 162865248
new weight for 0 is: -21
new weight for 1 is: -162865120
new weight for 2 is: 162865248
new weight for 0 is: -21
new weight for 1 is: -162865120
new weight for 2 is: 162865248
new weight for 0 is: -21
new weight for 1 is: -162865174
new weight for 2 is: 162865302
new weight for 0 is: -21
new weight for 1 is: -162865174
new weight for 2 is: 162865302
new weight for 0 is: -21
new weight for 1 is: -166379924
new weight for 2 is: 166380044
new weight for 0 is: -21
new weight for 1 is: -166379924
new weight for 2 is: 166380044
new weight for 0 is: -21
new weight for 1 is: -166379924
new weight for 2 is: 166380044
new weight for 0 is: -21
new weight for 1 is: -166379924
new weight for 2 is: 166380044
new weight for 0 is: -21
new weight for 1 is: -162865150
new weight for 2 is: 162865278
new weight for 0 is: -21
new weight for 1 is: -162865150
new weight for 2 is: 162865278
new weight for 0 is: -21
new weight for 1 is: -162865150
new weight for 2 is: 162865278
new weight for 0 is: -21
new weight for 1 is: -162865150
new weight for 2 is: 162865278
new weight for 0 is: -21
new weight for 1 is: -162865150
new weight for 2 is: 162865278
new weight for 0 is: -21
new weight for 1 is: -162865150
new weight for 2 is: 162865278
new weight for 0 is: -21
new weight for 1 is: -162865173
new weight for 2 is: 162865301
new weight for 0 is: -21
new weight for 1 is: -162865173
new weight for 2 is: 162865301
new weight for 0 is: -21
new weight for 1 is: -166328346
new weight for 2 is: 166328426
new weight for 0 is: -21
new weight for 1 is: -166328346
new weight for 2 is: 166328426
new weight for 0 is: -21
new weight for 1 is: -166328346
new weight for 2 is: 166328426
new weight for 0 is: -21
new weight for 1 is: -166328346
new weight for 2 is: 166328426
new weight for 0 is: -21
new weight for 1 is: -166326900
new weight for 2 is: 166327028
new weight for 0 is: -21
new weight for 1 is: -166326900
new weight for 2 is: 166327028
new weight for 0 is: -21
new weight for 1 is: -166327284
new weight for 2 is: 166327412
new weight for 0 is: -21
new weight for 1 is: -166327284
new weight for 2 is: 166327412
new weight for 0 is: -21
new weight for 1 is: -162865172
new weight for 2 is: 162865300
new weight for 0 is: -21
new weight for 1 is: -162865172
new weight for 2 is: 162865300
new weight for 0 is: -21
new weight for 1 is: -166327668
new weight for 2 is: 166327796
new weight for 0 is: -21
new weight for 1 is: -166327668
new weight for 2 is: 166327796
new weight for 0 is: -21
new weight for 1 is: -166327860
new weight for 2 is: 166327988
new weight for 0 is: -21
new weight for 1 is: -166327860
new weight for 2 is: 166327988
new weight for 0 is: -21
new weight for 1 is: -166328052
new weight for 2 is: 166328180
new weight for 0 is: -21
new weight for 1 is: -166328052
new weight for 2 is: 166328180
new weight for 0 is: -21
[...]
new weight for 2 is: 166423300
new weight for 0 is: -21
new weight for 1 is: -166423172
new weight for 2 is: 166423300
new weight for 0 is: -21
new weight for 1 is: -166423364
new weight for 2 is: 166423492
new weight for 0 is: -21
new weight for 1 is: -166423364
new weight for 2 is: 166423492
new weight for 0 is: -21
new weight for 1 is: -166423556
new weight for 2 is: 166423684
new weight for 0 is: -21
new weight for 1 is: -166423556
new weight for 2 is: 166423684
new weight for 0 is: -21
new weight for 1 is: -166423748
new weight for 2 is: 166423876
new weight for 0 is: -21
new weight for 1 is: -166423748
new weight for 2 is: 166423876
new weight for 0 is: -21
new weight for 1 is: -166423940
new weight for 2 is: 166424068
new weight for 0 is: -21
new weight for 1 is: -166423940
new weight for 2 is: 166424068
new weight for 0 is: -21
new weight for 1 is: -166424132
new weight for 2 is: 166424260
new weight for 0 is: -21
new weight for 1 is: -166424132
new weight for 2 is: 166424260
new weight for 0 is: -21
new weight for 1 is: -166424516
new weight for 2 is: 166424644
new weight for 0 is: -21
new weight for 1 is: -166424516
new weight for 2 is: 166424644
new weight for 0 is: -21
new weight for 1 is: -166424708
new weight for 2 is: 166424836
new weight for 0 is: -21
new weight for 1 is: -166424708
new weight for 2 is: 166424836
new weight for 0 is: -21
new weight for 1 is: -166424900
new weight for 2 is: 166425028
new weight for 0 is: -21
new weight for 1 is: -166424900
new weight for 2 is: 166425028
new weight for 0 is: -21
new weight for 1 is: -166425092
new weight for 2 is: 166425220
new weight for 0 is: -21
new weight for 1 is: -166425092
new weight for 2 is: 166425220
new weight for 0 is: -21
new weight for 1 is: -166425476
new weight for 2 is: 166425604
new weight for 0 is: -21
new weight for 1 is: -166425476
new weight for 2 is: 166425604
new weight for 0 is: -21
new weight for 1 is: -166417348
new weight for 2 is: 166417476
new weight for 0 is: -21
new weight for 1 is: -166417348
new weight for 2 is: 166417476
new weight for 0 is: -21
new weight for 1 is: -166417540
new weight for 2 is: 166417668
new weight for 0 is: -21
new weight for 1 is: -166417540
new weight for 2 is: 166417668
new weight for 0 is: -21
new weight for 1 is: -166417732
new weight for 2 is: 166417860
new weight for 0 is: -21
new weight for 1 is: -166417732
new weight for 2 is: 166417860
new weight for 0 is: -21
new weight for 1 is: -166417924
new weight for 2 is: 166418052
new weight for 0 is: -21
new weight for 1 is: -166417924
new weight for 2 is: 166418052
new weight for 0 is: -21
new weight for 1 is: -166418116
new weight for 2 is: 166418244
new weight for 0 is: -21
new weight for 1 is: -166418116
new weight for 2 is: 166418244
new weight for 0 is: -21
new weight for 1 is: -166418116
new weight for 2 is: 166418244
new weight for 0 is: -21
new weight for 1 is: -166418116
new weight for 2 is: 166418244
new weight for 0 is: -21
new weight for 1 is: -166418308
new weight for 2 is: 166418436
new weight for 0 is: -21
new weight for 1 is: -166418308
new weight for 2 is: 166418436
new weight for 0 is: -21
new weight for 1 is: -166418500
new weight for 2 is: 166418628
new weight for 0 is: -21
new weight for 1 is: -166418500
new weight for 2 is: 166418628
new weight for 0 is: -21
new weight for 1 is: -166418692
new weight for 2 is: 166418820
new weight for 0 is: -21
new weight for 1 is: -166418692
new weight for 2 is: 166418820
new weight for 0 is: -21
new weight for 1 is: -166418884
new weight for 2 is: 166419012
new weight for 0 is: -21
new weight for 1 is: -166418884
new weight for 2 is: 166419012
new weight for 0 is: -21
new weight for 1 is: -166419076
new weight for 2 is: 166419204
new weight for 0 is: -21
new weight for 1 is: -166419076
new weight for 2 is: 166419204
new weight for 0 is: -21
new weight for 1 is: -166419268
new weight for 2 is: 166419396
new weight for 0 is: -21
new weight for 1 is: -166419268
new weight for 2 is: 166419396
new weight for 0 is: -21
new weight for 1 is: -166419460
new weight for 2 is: 166419588
new weight for 0 is: -21
new weight for 1 is: -166419460
new weight for 2 is: 166419588
new weight for 0 is: -21
new weight for 1 is: -166419460
new weight for 2 is: 166419588
new weight for 0 is: -21
new weight for 1 is: -166419460
new weight for 2 is: 166419588
new weight for 0 is: -21
new weight for 1 is: -166419652
new weight for 2 is: 166419780
new weight for 0 is: -21
new weight for 1 is: -166419652
new weight for 2 is: 166419780
new weight for 0 is: -21
new weight for 1 is: -166419844
new weight for 2 is: 166419972
new weight for 0 is: -21
new weight for 1 is: -166419844
new weight for 2 is: 166419972
new weight for 0 is: -21
new weight for 1 is: -166420036
new weight for 2 is: 166420164
new weight for 0 is: -21
new weight for 1 is: -166420036
new weight for 2 is: 166420164
new weight for 0 is: -21
new weight for 1 is: -166420228
new weight for 2 is: 166420356
new weight for 0 is: -21
new weight for 1 is: -166420228
new weight for 2 is: 166420356
new weight for 0 is: -21
new weight for 1 is: -166420420
new weight for 2 is: 166420548
new weight for 0 is: -21
new weight for 1 is: -166420420
new weight for 2 is: 166420548
new weight for 0 is: -21
new weight for 1 is: -166420612
new weight for 2 is: 166420740
new weight for 0 is: -21
new weight for 1 is: -166420612
new weight for 2 is: 166420740
new weight for 0 is: -21
new weight for 1 is: -166420804
new weight for 2 is: 166420932
new weight for 0 is: -21
new weight for 1 is: -166420804
new weight for 2 is: 166420932
new weight for 0 is: -21
new weight for 1 is: -166420996
new weight for 2 is: 166421124
new weight for 0 is: -21
new weight for 1 is: -166420996
new weight for 2 is: 166421124
new weight for 0 is: -21
new weight for 1 is: -166421380
new weight for 2 is: 166421508
new weight for 0 is: -21
new weight for 1 is: -166421380
new weight for 2 is: 166421508
new weight for 0 is: -21
new weight for 1 is: -166278276
new weight for 2 is: 166278404
new weight for 0 is: -21
new weight for 1 is: -166278276
new weight for 2 is: 166278404
new weight for 0 is: -21
new weight for 1 is: -166278660
new weight for 2 is: 166278788
new weight for 0 is: -21
new weight for 1 is: -166278660
new weight for 2 is: 166278788
new weight for 0 is: -21
new weight for 1 is: -166278852
new weight for 2 is: 166278980
new weight for 0 is: -21
new weight for 1 is: -166278852
new weight for 2 is: 166278980
new weight for 0 is: -21
new weight for 1 is: -166279044
new weight for 2 is: 166279172
new weight for 0 is: -21
new weight for 1 is: -166279044
new weight for 2 is: 166279172
new weight for 0 is: -21
new weight for 1 is: -166279044
new weight for 2 is: 166279172
new weight for 0 is: -21
new weight for 1 is: -166279044
new weight for 2 is: 166279172
new weight for 0 is: -21
new weight for 1 is: -166279236
new weight for 2 is: 166279364
new weight for 0 is: -21
new weight for 1 is: -166279236
new weight for 2 is: 166279364
new weight for 0 is: -21
new weight for 1 is: -166279428
new weight for 2 is: 166279556
new weight for 0 is: -21
new weight for 1 is: -166279428
new weight for 2 is: 166279556
new weight for 0 is: -21
new weight for 1 is: -166279620
new weight for 2 is: 166279748
new weight for 0 is: -21
new weight for 1 is: -166279620
new weight for 2 is: 166279748
new weight for 0 is: -21
new weight for 1 is: -166279620
new weight for 2 is: 166279748
new weight for 0 is: -21
new weight for 1 is: -166279620
new weight for 2 is: 166279748
new weight for 0 is: -21
new weight for 1 is: -166279812
new weight for 2 is: 166279940
new weight for 0 is: -21
new weight for 1 is: -166279812
new weight for 2 is: 166279940
new weight for 0 is: -21
new weight for 1 is: -166280004
new weight for 2 is: 166280132
new weight for 0 is: -21
new weight for 1 is: -166280004
new weight for 2 is: 166280132
new weight for 0 is: -21
new weight for 1 is: -166280196
new weight for 2 is: 166280324
new weight for 0 is: -21
new weight for 1 is: -166280196
new weight for 2 is: 166280324
new weight for 0 is: -21
new weight for 1 is: -166280580
new weight for 2 is: 166280708
new weight for 0 is: -21
new weight for 1 is: -166280580
new weight for 2 is: 166280708
new weight for 0 is: -21
new weight for 1 is: -166280772
new weight for 2 is: 166280900
new weight for 0 is: -21
new weight for 1 is: -166280772
new weight for 2 is: 166280900
new weight for 0 is: -21
new weight for 1 is: -166281476
new weight for 2 is: 166281604
new weight for 0 is: -21
new weight for 1 is: -166281476
new weight for 2 is: 166281604
new weight for 0 is: -21
new weight for 1 is: -166281668
new weight for 2 is: 166281796
new weight for 0 is: -21
new weight for 1 is: -166281668
new weight for 2 is: 166281796
new weight for 0 is: -21
new weight for 1 is: -166281860
new weight for 2 is: 166281988
new weight for 0 is: -21
new weight for 1 is: -166281860
new weight for 2 is: 166281988
new weight for 0 is: -21
new weight for 1 is: -166282052
new weight for 2 is: 166282180
new weight for 0 is: -21
new weight for 1 is: -166282052
new weight for 2 is: 166282180
new weight for 0 is: -21
new weight for 1 is: 4194279
new weight for 2 is: -4194151
new weight for 0 is: -21
new weight for 1 is: 4194319
new weight for 2 is: -4194191
new weight for 0 is: -21
new weight for 1 is: 4194319
new weight for 2 is: -4194191
new weight for 0 is: -21
new weight for 1 is: 4194319
new weight for 2 is: -4194191
new weight for 0 is: -21
new weight for 1 is: -151984476
new weight for 2 is: 151984556
new weight for 0 is: -21
new weight for 1 is: -136407942
new weight for 2 is: 136408032
new weight for 0 is: -21
new weight for 1 is: -136407942
new weight for 2 is: 136408032
new weight for 0 is: -21
new weight for 1 is: 4194284
new weight for 2 is: -4194156
new weight for 0 is: -21
new weight for 1 is: 4194324
new weight for 2 is: -4194196
new weight for 0 is: -21
new weight for 1 is: 4194324
new weight for 2 is: -4194196
new weight for 0 is: -21
new weight for 1 is: 4194324
new weight for 2 is: -4194196
new weight for 0 is: -21
new weight for 1 is: -151105794
new weight for 2 is: 151105922
new weight for 0 is: -21
new weight for 1 is: -151105834
new weight for 2 is: 151105962
new weight for 0 is: -21
new weight for 1 is: -151105834
new weight for 2 is: 151105962
new weight for 0 is: -21
new weight for 1 is: 4194281
new weight for 2 is: -4194153
new weight for 0 is: -21
new weight for 1 is: 4194321
new weight for 2 is: -4194193
new weight for 0 is: -21
new weight for 1 is: 4194317
new weight for 2 is: -4194189
new weight for 0 is: -21
new weight for 1 is: 4194317
new weight for 2 is: -4194189
new weight for 0 is: -21
new weight for 1 is: -147807748
new weight for 2 is: 147807868
new weight for 0 is: -21
new weight for 1 is: -166321130
new weight for 2 is: 166321210
new weight for 0 is: -21
new weight for 1 is: 4194284
new weight for 2 is: -4194156
new weight for 0 is: -21
new weight for 1 is: 4194324
new weight for 2 is: -4194196
new weight for 0 is: -21
new weight for 1 is: 4194322
new weight for 2 is: -4194194
new weight for 0 is: -21
new weight for 1 is: 4194322
new weight for 2 is: -4194194
new weight for 0 is: -21
new weight for 1 is: 4194322
new weight for 2 is: -4194194
new weight for 0 is: -21
new weight for 1 is: 4194322
new weight for 2 is: -4194194
new weight for 0 is: -21
new weight for 1 is: -136406955
new weight for 2 is: 136407062
new weight for 0 is: -21
new weight for 1 is: 4194281
new weight for 2 is: -4194153
new weight for 0 is: -21
new weight for 1 is: 4194321
new weight for 2 is: -4194193
new weight for 0 is: -21
new weight for 1 is: 4194323
new weight for 2 is: -4194195
new weight for 0 is: -21
new weight for 1 is: 4194323
new weight for 2 is: -4194195
new weight for 0 is: -21
new weight for 1 is: -151952269
new weight for 2 is: 151952397
new weight for 0 is: -21
new weight for 1 is: -151952254
new weight for 2 is: 151952326
new weight for 0 is: -21
new weight for 1 is: -151952254
new weight for 2 is: 151952326
new weight for 0 is: -21
new weight for 1 is: 4194284
new weight for 2 is: -4194156
new weight for 0 is: -21
new weight for 1 is: 4194324
new weight for 2 is: -4194196
new weight for 0 is: -21
new weight for 1 is: -140181484
new weight for 2 is: 140181612
new weight for 0 is: -21
new weight for 1 is: -162865140
new weight for 2 is: 162865268
new weight for 0 is: -21
new weight for 1 is: -162865140
new weight for 2 is: 162865268
new weight for 0 is: -21
new weight for 1 is: -162865124
new weight for 2 is: 162865252
new weight for 0 is: -21
new weight for 1 is: -162865124
new weight for 2 is: 162865252
new weight for 0 is: -21
new weight for 1 is: -162865124
new weight for 2 is: 162865252
new weight for 0 is: -21
new weight for 1 is: -162865124
new weight for 2 is: 162865252
new weight for 0 is: -21
new weight for 1 is: 4194280
new weight for 2 is: -4194152
new weight for 0 is: -21
new weight for 1 is: 4194320
new weight for 2 is: -4194192
new weight for 0 is: -21
new weight for 1 is: 4194320
new weight for 2 is: -4194192
new weight for 0 is: -21
new weight for 1 is: 4194320
new weight for 2 is: -4194192
new weight for 0 is: -21
new weight for 1 is: 4194320
new weight for 2 is: -4194192
new weight for 0 is: -21
new weight for 1 is: 4194320
new weight for 2 is: -4194192
info: Increasing stack size by one page.
new weight for 0 is: -21
new weight for 1 is: -11339234
new weight for 2 is: 11339362
new weight for 0 is: -21
new weight for 1 is: -11339274
new weight for 2 is: 11339402
new weight for 0 is: -21
new weight for 1 is: 4194339
new weight for 2 is: -4194211
new weight for 0 is: -21
new weight for 1 is: 4194379
new weight for 2 is: -4194251
new weight for 0 is: -21
new weight for 1 is: -11337986
new weight for 2 is: 11338058
new weight for 0 is: -21
new weight for 1 is: -11338026
new weight for 2 is: 11338098
new weight for 0 is: -21
new weight for 1 is: 4194284
new weight for 2 is: -4194156
new weight for 0 is: -21
new weight for 1 is: 4194324
new weight for 2 is: -4194196
new weight for 0 is: -21
new weight for 1 is: -11336906
new weight for 2 is: 11336994
new weight for 0 is: -21
new weight for 1 is: -11336946
new weight for 2 is: 11337034
new weight for 0 is: -21
new weight for 1 is: -11336946
new weight for 2 is: 11337034
new weight for 0 is: -21
new weight for 1 is: -11336946
new weight for 2 is: 11337034
new weight for 0 is: -21
new weight for 1 is: -11336946
new weight for 2 is: 11337034
new weight for 0 is: -21
new weight for 1 is: -11336946
new weight for 2 is: 11337034
info: Increasing stack size by one page.
new weight for 0 is: -21
new weight for 1 is: 4194284
new weight for 2 is: -4194156
new weight for 0 is: -21
new weight for 1 is: 4194324
new weight for 2 is: -4194196
new weight for 0 is: -21
new weight for 1 is: 4194324
new weight for 2 is: -4194196
new weight for 0 is: -21
new weight for 1 is: 4194324
new weight for 2 is: -4194196
new weight for 0 is: -21
new weight for 1 is: 4194324
new weight for 2 is: -4194196
new weight for 0 is: -21
new weight for 1 is: 4194324
new weight for 2 is: -4194196
new weight for 0 is: -21
new weight for 1 is: -11315036
new weight for 2 is: 11315148
new weight for 0 is: -21
new weight for 1 is: -11315076
new weight for 2 is: 11315188
info: Increasing stack size by one page.
info: Increasing stack size by one page.
new weight for 0 is: -21
new weight for 1 is: 4194280
new weight for 2 is: -4194152
new weight for 0 is: -21
new weight for 1 is: 4194320
new weight for 2 is: -4194192
new weight for 0 is: -21
new weight for 1 is: -11334674
new weight for 2 is: 11334802
new weight for 0 is: -21
new weight for 1 is: -11334714
new weight for 2 is: 11334842
new weight for 0 is: -21
new weight for 1 is: 4194332
new weight for 2 is: -4194204
new weight for 0 is: -21
new weight for 1 is: 4194372
new weight for 2 is: -4194244
new weight for 0 is: -21
new weight for 1 is: 4194372
new weight for 2 is: -4194244
new weight for 0 is: -21
new weight for 1 is: 4194372
new weight for 2 is: -4194244
new weight for 0 is: -21
new weight for 1 is: -136406907
new weight for 2 is: 136406998
new weight for 0 is: -21
new weight for 1 is: -136406947
new weight for 2 is: 136407038
new weight for 0 is: -21
new weight for 1 is: -136406947
new weight for 2 is: 136407038
new weight for 0 is: -21
new weight for 1 is: 4194279
new weight for 2 is: -4194151
new weight for 0 is: -21
new weight for 1 is: 4194319
new weight for 2 is: -4194191
new weight for 0 is: -21
new weight for 1 is: -140181484
new weight for 2 is: 140181612
new weight for 0 is: -21
new weight for 1 is: 4194332
new weight for 2 is: -4194204
new weight for 0 is: -21
new weight for 1 is: 4194372
new weight for 2 is: -4194244
new weight for 0 is: -21
new weight for 1 is: 4194372
new weight for 2 is: -4194244
new weight for 0 is: -21
new weight for 1 is: 4194372
new weight for 2 is: -4194244
new weight for 0 is: -21
new weight for 1 is: -140181484
new weight for 2 is: 140181612
new weight for 0 is: -21
new weight for 1 is: 4194282
new weight for 2 is: -4194154
new weight for 0 is: -21
new weight for 1 is: 4194322
new weight for 2 is: -4194194
new weight for 0 is: -21
new weight for 1 is: -11327199
new weight for 2 is: 11327327
new weight for 0 is: -21
new weight for 1 is: -11327239
new weight for 2 is: 11327367
new weight for 0 is: -21
new weight for 1 is: -11327239
new weight for 2 is: 11327367
new weight for 0 is: -21
new weight for 1 is: -11327239
new weight for 2 is: 11327367
new weight for 0 is: -21
new weight for 1 is: 4194282
new weight for 2 is: -4194154
new weight for 0 is: -21
new weight for 1 is: 4194322
new weight for 2 is: -4194194
new weight for 0 is: -21
new weight for 1 is: 4194322
new weight for 2 is: -4194194
new weight for 0 is: -21
new weight for 1 is: 4194322
new weight for 2 is: -4194194
new weight for 0 is: -21
new weight for 1 is: 4194322
new weight for 2 is: -4194194
new weight for 0 is: -21
new weight for 1 is: 4194322
new weight for 2 is: -4194194
new weight for 0 is: -21
new weight for 1 is: -140181486
new weight for 2 is: 140181614
new weight for 0 is: -21
new weight for 1 is: 4194284
new weight for 2 is: -4194156
new weight for 0 is: -21
new weight for 1 is: 4194324
new weight for 2 is: -4194196
new weight for 0 is: -21
new weight for 1 is: 4194324
new weight for 2 is: -4194196
new weight for 0 is: -21
new weight for 1 is: 4194324
new weight for 2 is: -4194196
new weight for 0 is: -21
new weight for 1 is: -140181484
new weight for 2 is: 140181612
new weight for 0 is: -21
new weight for 1 is: 4194283
new weight for 2 is: -4194155
new weight for 0 is: -21
new weight for 1 is: 4194323
new weight for 2 is: -4194195
new weight for 0 is: -21
new weight for 1 is: -140181486
new weight for 2 is: 140181614
new weight for 0 is: -21
new weight for 1 is: 4194283
new weight for 2 is: -4194155
new weight for 0 is: -21
new weight for 1 is: 4194323
new weight for 2 is: -4194195
new weight for 0 is: -21
new weight for 1 is: -140181484
new weight for 2 is: 140181612
new weight for 0 is: -21
new weight for 1 is: 4194283
new weight for 2 is: -4194155
new weight for 0 is: -21
new weight for 1 is: 4194323
new weight for 2 is: -4194195
new weight for 0 is: -21
new weight for 1 is: -140181484
new weight for 2 is: 140181612
new weight for 0 is: -21
new weight for 1 is: 4194281
new weight for 2 is: -4194153
new weight for 0 is: -21
new weight for 1 is: 4194321
new weight for 2 is: -4194193
new weight for 0 is: -21
new weight for 1 is: 4194321
new weight for 2 is: -4194193
new weight for 0 is: -21
new weight for 1 is: 4194321
new weight for 2 is: -4194193
new weight for 0 is: -21
new weight for 1 is: 4194321
new weight for 2 is: -4194193
new weight for 0 is: -21
new weight for 1 is: 4194321
new weight for 2 is: -4194193
new weight for 0 is: -21
new weight for 1 is: 4194321
new weight for 2 is: -4194193
new weight for 0 is: -21
new weight for 1 is: 4194321
new weight for 2 is: -4194193
Exiting @ tick 86628849000 because a thread reached the max instruction count
