Running SPEC test: leela

/home/victorfu/cpu2017/benchspec/CPU/541.leela_r
/home/victorfu/finalproject/gem5/build/X86/gem6.opt --outdir="/home/victorfu/output/bench_spec/fastforward-p3/leela" /home/victorfu/finalproject/gem5/configs/example/se.py --cmd=leela_r_base.victor_jun10-m64 --standard-switch=1 --warmup-insts=71000000 --caches  --l2cache --l1i_size=16kB  --l1d_size=64kB --l2_size=256kB --cpu-type=DerivO3CPU  --mem-type=DDR3_1600_8x8  --cpu-clock=1GHz --maxinsts=100000000 --options="ref.sgf" --l2-hwp-type=TaggedPrefetcher --mlu_pf_type=perceptron

gem5 Simulator System.  http://gem5.org
gem5 is copyrighted software; use the --copyright option for details.

gem5 compiled Jun 14 2019 14:23:51
gem5 started Jun 14 2019 19:50:59
gem5 executing on tetracosa.cs.ucla.edu, pid 444387
command line: /home/victorfu/finalproject/gem5/build/X86/gem6.opt --outdir=/home/victorfu/output/bench_spec/fastforward-p3/leela /home/victorfu/finalproject/gem5/configs/example/se.py --cmd=leela_r_base.victor_jun10-m64 --standard-switch=1 --warmup-insts=71000000 --caches --l2cache --l1i_size=16kB --l1d_size=64kB --l2_size=256kB --cpu-type=DerivO3CPU --mem-type=DDR3_1600_8x8 --cpu-clock=1GHz --maxinsts=100000000 --options=ref.sgf --l2-hwp-type=TaggedPrefetcher --mlu_pf_type=perceptron

info: Standard input is not a terminal, disabling listeners.
Warning: l2-hwp-type is set ( TaggedPrefetcher ), but the current l2 has a default Hardware Prefetcher of type <class 'm5.params.NullSimObject'> , using the specified by the flag option.
MLU-Prefetch Perceptron Enabled.
Global frequency set at 1000000000000 ticks per second
warn: DRAM device capacity (8192 Mbytes) does not match the address range assigned (512 Mbytes)
warn: Sockets disabled, not accepting gdb connections
Switch at instruction count:1
info: Entering event queue @ 0.  Starting simulation...
accept
accept
accept
accept
Switched CPUS @ tick 120000
switching cpus
info: Entering event queue @ 120000.  Starting simulation...
accept
accept
accept
accept
warn: ClockedObject: Already in the requested power state, request ignored
Switch at instruction count:71000000
info: Entering event queue @ 8066000.  Starting simulation...
accept
accept
accept
accept
accept
accept
accept
accept
accept
accept
accept
accept
accept
accept
accept
accept
accept
accept
accept
accept
accept
accept
accept
accept
accept
accept
accept
accept
accept
accept
accept
accept
accept
accept
accept
accept
accept
accept
accept
accept
accept
accept
accept
accept
accept
accept
accept
accept
accept
accept
accept
accept
accept
accept
accept
accept
accept
accept
accept
accept
accept
accept
accept
accept
accept
accept
accept
accept
accept
accept
accept
accept
accept
accept
accept
accept
accept
accept
accept
accept
accept
accept
accept
accept
accept
accept
accept
accept
accept
accept
accept
accept
accept
accept
accept
accept
accept
accept
info: Increasing stack size by one page.
accept
accept
accept
accept
accept
accept
accept
accept
accept
accept
accept
accept
accept
accept
accept
accept
accept
accept
accept
accept
accept
accept
accept
accept
accept
accept
accept
accept
accept
accept
accept
accept
accept
accept
accept
accept
accept
accept
accept
accept
accept
accept
accept
accept
accept
accept
accept
accept
accept
accept
accept
accept
accept
accept
accept
accept
accept
accept
accept
accept
accept
accept
accept
accept
accept
accept
accept
accept
accept
accept
accept
accept
accept
accept
accept
accept
accept
accept
accept
accept
accept
accept
accept
accept
accept
accept
accept
accept
accept
accept
accept
accept
accept
accept
accept
accept
accept
accept
accept
accept
accept
accept
accept
accept
accept
accept
accept
accept
accept
accept
accept
accept
accept
accept
accept
accept
accept
accept
accept
accept
accept
accept
accept
accept
accept
accept
accept
accept
accept
accept
accept
accept
accept
accept
accept
accept
accept
accept
accept
accept
accept
accept
accept
accept
accept
accept
accept
accept
accept
accept
accept
accept
accept
accept
accept
accept
accept
accept
weight of 0 is -0.494007
weight of 1 is -0.000279
weight of 2 is -0.355556
weight of 3 is -1.000000
not used!
deny
deny
deny
deny
deny
deny
deny
deny
deny
deny
weight of 0 is -0.988023
weight of 1 is -0.041266
weight of 2 is -1.422222
weight of 3 is -2.000000
not used!
deny
deny
weight of 0 is -0.494510
weight of 1 is -0.033610
weight of 2 is -0.711111
weight of 3 is -1.000000
used!
weight of 0 is -0.000997
weight of 1 is -0.025955
weight of 2 is 0.000000
weight of 3 is 0.000000
used!
accept
accept
weight of 0 is 0.492515
weight of 1 is -0.025945
weight of 2 is 0.000000
weight of 3 is 1.000000
used!
weight of 0 is 0.986028
weight of 1 is -0.025936
weight of 2 is 0.000000
weight of 3 is 2.000000
used!
accept
accept
weight of 0 is 0.492011
weight of 1 is -0.026894
weight of 2 is 0.000000
weight of 3 is 1.000000
not used!
accept
accept
weight of 0 is -0.001995
weight of 1 is -0.027796
weight of 2 is 0.000000
weight of 3 is 0.000000
not used!
accept
accept
accept
accept
weight of 0 is -0.495508
weight of 1 is -0.029111
weight of 2 is 0.000000
weight of 3 is -1.000000
not used!
deny
deny
weight of 0 is -0.989004
weight of 1 is -0.030431
weight of 2 is -1.066667
weight of 3 is -2.000000
not used!
weight of 0 is -1.483007
weight of 1 is -0.071645
weight of 2 is -1.777778
weight of 3 is -3.000000
not used!
deny
deny
weight of 0 is -1.976501
weight of 1 is -0.071907
weight of 2 is -1.866667
weight of 3 is -4.000000
not used!
deny
deny
weight of 0 is -1.482988
weight of 1 is -0.052368
weight of 2 is -0.800000
weight of 3 is -3.000000
used!
weight of 0 is -0.989475
weight of 1 is -0.032830
weight of 2 is 0.266667
weight of 3 is -2.000000
used!
weight of 0 is -1.483376
weight of 1 is -0.066007
weight of 2 is 0.266667
weight of 3 is -3.000000
not used!
weight of 0 is -1.976889
weight of 1 is -0.097534
weight of 2 is -0.977778
weight of 3 is -4.000000
not used!
deny
deny
weight of 0 is -1.483377
weight of 1 is -0.097529
weight of 2 is -0.977778
weight of 3 is -3.000000
used!
weight of 0 is -0.989864
weight of 1 is -0.097525
weight of 2 is -0.977778
weight of 3 is -2.000000
used!
deny
deny
deny
deny
weight of 0 is -1.483356
weight of 1 is -0.099287
weight of 2 is -1.066667
weight of 3 is -3.000000
not used!
deny
deny
weight of 0 is -1.976848
weight of 1 is -0.099315
weight of 2 is -1.866667
weight of 3 is -4.000000
not used!
deny
deny
weight of 0 is -1.483336
weight of 1 is -0.091289
weight of 2 is -1.866667
weight of 3 is -3.000000
used!
weight of 0 is -0.989823
weight of 1 is -0.083262
weight of 2 is -1.866667
weight of 3 is -2.000000
used!
weight of 0 is -1.483316
weight of 1 is -0.083381
weight of 2 is -3.200000
weight of 3 is -3.000000
not used!
deny
deny
deny
deny
weight of 0 is -0.989804
weight of 1 is -0.083363
weight of 2 is -3.200000
weight of 3 is -2.000000
used!
weight of 0 is -0.496291
weight of 1 is -0.083344
weight of 2 is -3.200000
weight of 3 is -1.000000
used!
weight of 0 is -0.989787
weight of 1 is -0.083683
weight of 2 is -3.200000
weight of 3 is -2.000000
not used!
deny
deny
deny
deny
deny
deny
weight of 0 is -0.496275
weight of 1 is -0.045165
weight of 2 is -3.200000
weight of 3 is -1.000000
used!
weight of 0 is -0.002762
weight of 1 is -0.006646
weight of 2 is -3.200000
weight of 3 is 0.000000
used!
accept
accept
weight of 0 is 0.490751
weight of 1 is -0.006512
weight of 2 is -3.200000
weight of 3 is 1.000000
used!
weight of 0 is 0.984264
weight of 1 is -0.006378
weight of 2 is -3.200000
weight of 3 is 2.000000
used!
weight of 0 is 0.490217
weight of 1 is -0.051132
weight of 2 is -3.377778
weight of 3 is 1.000000
not used!
accept
accept
weight of 0 is -0.003296
weight of 1 is -0.083462
weight of 2 is -3.733333
weight of 3 is 0.000000
not used!
weight of 0 is -0.496649
weight of 1 is -0.096454
weight of 2 is -4.800000
weight of 3 is -1.000000
not used!
deny
deny
weight of 0 is -0.990665
weight of 1 is -0.139301
weight of 2 is -5.333333
weight of 3 is -2.000000
not used!
deny
deny
weight of 0 is -1.484178
weight of 1 is -0.180283
weight of 2 is -5.333333
weight of 3 is -3.000000
not used!
deny
deny
weight of 0 is -0.990665
weight of 1 is -0.180161
weight of 2 is -4.622222
weight of 3 is -2.000000
used!
weight of 0 is -0.497152
weight of 1 is -0.180039
weight of 2 is -3.911111
weight of 3 is -1.000000
used!
deny
deny
weight of 0 is -0.991165
weight of 1 is -0.220762
weight of 2 is -4.800000
weight of 3 is -2.000000
not used!
deny
deny
deny
deny
weight of 0 is -0.497652
weight of 1 is -0.211244
weight of 2 is -3.733333
weight of 3 is -1.000000
used!
weight of 0 is -0.004139
weight of 1 is -0.201726
weight of 2 is -2.666667
weight of 3 is 0.000000
used!
weight of 0 is -0.497859
weight of 1 is -0.218581
weight of 2 is -3.911111
weight of 3 is -1.000000
not used!
deny
deny
weight of 0 is -0.991579
weight of 1 is -0.218599
weight of 2 is -5.155556
weight of 3 is -2.000000
not used!
deny
deny
deny
deny
deny
deny
deny
deny
deny
deny
weight of 0 is -0.498066
weight of 1 is -0.203187
weight of 2 is -5.155556
weight of 3 is -1.000000
used!
weight of 0 is -0.004553
weight of 1 is -0.187774
weight of 2 is -5.155556
weight of 3 is 0.000000
used!
weight of 0 is -0.498135
weight of 1 is -0.193413
weight of 2 is -5.333333
weight of 3 is -1.000000
not used!
deny
deny
weight of 0 is -0.991716
weight of 1 is -0.193433
weight of 2 is -5.422222
weight of 3 is -2.000000
not used!
deny
deny
weight of 0 is -0.498203
weight of 1 is -0.189466
weight of 2 is -5.422222
weight of 3 is -1.000000
used!
weight of 0 is -0.004691
weight of 1 is -0.185500
weight of 2 is -5.422222
weight of 3 is 0.000000
used!
weight of 0 is -0.498203
weight of 1 is -0.190999
weight of 2 is -5.955556
weight of 3 is -1.000000
not used!
deny
deny
weight of 0 is -0.991785
weight of 1 is -0.196486
weight of 2 is -6.577778
weight of 3 is -2.000000
not used!
deny
deny
weight of 0 is -0.498272
weight of 1 is -0.178774
weight of 2 is -5.511111
weight of 3 is -1.000000
used!
weight of 0 is -0.004759
weight of 1 is -0.161062
weight of 2 is -4.444444
weight of 3 is 0.000000
used!
accept
accept
weight of 0 is 0.488754
weight of 1 is -0.157178
weight of 2 is -4.444444
weight of 3 is 1.000000
used!
weight of 0 is 0.982266
weight of 1 is -0.153294
weight of 2 is -4.444444
weight of 3 is 2.000000
used!
deny
deny
accept
accept
weight of 0 is 0.488547
weight of 1 is -0.170134
weight of 2 is -4.444444
weight of 3 is 1.000000
not used!
deny
deny
warn: ignoring syscall access(...)
deny
deny
weight of 0 is -0.005134
weight of 1 is -0.183879
weight of 2 is -5.333333
weight of 3 is 0.000000
not used!
accept
accept
weight of 0 is -0.498858
weight of 1 is -0.201011
weight of 2 is -6.577778
weight of 3 is -1.000000
not used!
deny
deny
deny
deny
weight of 0 is -0.992536
weight of 1 is -0.204670
weight of 2 is -6.755556
weight of 3 is -2.000000
not used!
deny
deny
weight of 0 is -1.486049
weight of 1 is -0.218018
weight of 2 is -7.644444
weight of 3 is -3.000000
not used!
deny
deny
deny
deny
deny
deny
weight of 0 is -0.992536
weight of 1 is -0.213840
weight of 2 is -7.288889
weight of 3 is -2.000000
used!
weight of 0 is -0.499023
weight of 1 is -0.209663
weight of 2 is -6.933333
weight of 3 is -1.000000
used!
deny
deny
weight of 0 is -0.005510
weight of 1 is -0.209648
weight of 2 is -6.933333
weight of 3 is 0.000000
used!
weight of 0 is 0.488003
weight of 1 is -0.209634
weight of 2 is -6.933333
weight of 3 is 1.000000
used!
accept
accept
weight of 0 is -0.006070
weight of 1 is -0.255201
weight of 2 is -8.177778
weight of 3 is 0.000000
not used!
deny
deny
weight of 0 is 0.487443
weight of 1 is -0.255182
weight of 2 is -8.177778
weight of 3 is 1.000000
used!
weight of 0 is 0.980956
weight of 1 is -0.255163
weight of 2 is -8.177778
weight of 3 is 2.000000
used!
weight of 0 is 0.486884
weight of 1 is -0.255203
weight of 2 is -9.244444
weight of 3 is 1.000000
not used!
accept
accept
weight of 0 is 0.980397
weight of 1 is -0.255184
weight of 2 is -9.244444
weight of 3 is 2.000000
used!
weight of 0 is 1.473910
weight of 1 is -0.255165
weight of 2 is -9.244444
weight of 3 is 3.000000
used!
weight of 0 is 0.979895
weight of 1 is -0.255194
weight of 2 is -9.244444
weight of 3 is 2.000000
not used!
weight of 0 is 0.486382
weight of 1 is -0.296037
weight of 2 is -9.244444
weight of 3 is 1.000000
not used!
deny
deny
weight of 0 is -0.007689
weight of 1 is -0.341491
weight of 2 is -9.777778
weight of 3 is 0.000000
not used!
accept
accept
weight of 0 is -0.501202
weight of 1 is -0.361576
weight of 2 is -10.133333
weight of 3 is -1.000000
not used!
deny
deny
deny
deny
weight of 0 is -0.994715
weight of 1 is -0.362986
weight of 2 is -10.488889
weight of 3 is -2.000000
not used!
deny
deny
weight of 0 is -1.488227
weight of 1 is -0.389720
weight of 2 is -10.844444
weight of 3 is -3.000000
not used!
weight of 0 is -1.981740
weight of 1 is -0.389804
weight of 2 is -11.911111
weight of 3 is -4.000000
not used!
deny
deny
deny
deny
deny
deny
weight of 0 is -2.475677
weight of 1 is -0.424338
weight of 2 is -13.155556
weight of 3 is -5.000000
not used!
deny
deny
deny
deny
weight of 0 is -1.982165
weight of 1 is -0.401929
weight of 2 is -12.088889
weight of 3 is -4.000000
used!
weight of 0 is -1.488652
weight of 1 is -0.379521
weight of 2 is -11.022222
weight of 3 is -3.000000
used!
weight of 0 is -1.982588
weight of 1 is -0.379539
weight of 2 is -12.266667
weight of 3 is -4.000000
not used!
deny
deny
weight of 0 is -2.476101
weight of 1 is -0.396267
weight of 2 is -12.977778
weight of 3 is -5.000000
not used!
deny
deny
weight of 0 is -2.969659
weight of 1 is -0.399957
weight of 2 is -14.266667
weight of 3 is -6.000000
not used!
deny
deny
weight of 0 is -3.463172
weight of 1 is -0.403581
weight of 2 is -14.266667
weight of 3 is -7.000000
not used!
deny
deny
deny
deny
deny
deny
weight of 0 is -3.956685
weight of 1 is -0.405427
weight of 2 is -15.333333
weight of 3 is -8.000000
not used!
deny
deny
deny
deny
weight of 0 is -3.463172
weight of 1 is -0.402788
weight of 2 is -14.622222
weight of 3 is -7.000000
used!
weight of 0 is -2.969659
weight of 1 is -0.400148
weight of 2 is -13.911111
weight of 3 is -6.000000
used!
weight of 0 is -3.463172
weight of 1 is -0.400209
weight of 2 is -14.622222
weight of 3 is -7.000000
not used!
deny
deny
deny
deny
deny
deny
deny
deny
deny
deny
deny
deny
deny
deny
deny
deny
deny
deny
deny
deny
deny
deny
weight of 0 is -2.969659
weight of 1 is -0.372815
weight of 2 is -13.555556
weight of 3 is -6.000000
used!
weight of 0 is -2.476146
weight of 1 is -0.345421
weight of 2 is -12.488889
weight of 3 is -5.000000
used!
weight of 0 is -2.969659
weight of 1 is -0.375748
weight of 2 is -12.666667
weight of 3 is -6.000000
not used!
deny
deny
deny
deny
deny
deny
weight of 0 is -2.476146
weight of 1 is -0.338044
weight of 2 is -12.666667
weight of 3 is -5.000000
used!
weight of 0 is -1.982633
weight of 1 is -0.300341
weight of 2 is -12.666667
weight of 3 is -4.000000
used!
deny
deny
weight of 0 is -1.489120
weight of 1 is -0.262930
weight of 2 is -12.666667
weight of 3 is -3.000000
used!
weight of 0 is -0.995607
weight of 1 is -0.225520
weight of 2 is -12.666667
weight of 3 is -2.000000
used!
weight of 0 is -1.489494
weight of 1 is -0.225577
weight of 2 is -12.844444
weight of 3 is -3.000000
not used!
weight of 0 is -1.983379
weight of 1 is -0.225708
weight of 2 is -13.022222
weight of 3 is -4.000000
not used!
deny
deny
weight of 0 is -2.476891
weight of 1 is -0.255977
weight of 2 is -13.022222
weight of 3 is -5.000000
not used!
weight of 0 is -2.970757
weight of 1 is -0.284684
weight of 2 is -13.022222
weight of 3 is -6.000000
not used!
deny
deny
deny
deny
weight of 0 is -3.464270
weight of 1 is -0.313315
weight of 2 is -13.022222
weight of 3 is -7.000000
not used!
deny
deny
weight of 0 is -3.958285
weight of 1 is -0.343446
weight of 2 is -14.088889
weight of 3 is -8.000000
not used!
weight of 0 is -4.451798
weight of 1 is -0.373792
weight of 2 is -14.800000
weight of 3 is -9.000000
not used!
deny
deny
weight of 0 is -4.945820
weight of 1 is -0.403331
weight of 2 is -15.955556
weight of 3 is -10.000000
not used!
deny
deny
weight of 0 is -4.452307
weight of 1 is -0.403087
weight of 2 is -15.955556
weight of 3 is -9.000000
used!
weight of 0 is -3.958794
weight of 1 is -0.402843
weight of 2 is -15.955556
weight of 3 is -8.000000
used!
deny
deny
weight of 0 is -4.452307
weight of 1 is -0.442894
weight of 2 is -15.955556
weight of 3 is -9.000000
not used!
deny
deny
deny
deny
deny
deny
deny
deny
weight of 0 is -3.958794
weight of 1 is -0.421852
weight of 2 is -15.955556
weight of 3 is -8.000000
used!
weight of 0 is -3.465281
weight of 1 is -0.400810
weight of 2 is -15.955556
weight of 3 is -7.000000
used!
deny
deny
weight of 0 is -2.971769
weight of 1 is -0.400636
weight of 2 is -15.600000
weight of 3 is -6.000000
used!
weight of 0 is -2.478256
weight of 1 is -0.400463
weight of 2 is -15.244444
weight of 3 is -5.000000
used!
deny
deny
weight of 0 is -2.971768
weight of 1 is -0.400491
weight of 2 is -15.600000
weight of 3 is -6.000000
not used!
deny
deny
deny
deny
deny
deny
deny
deny
deny
deny
weight of 0 is -3.463890
weight of 1 is -0.400545
weight of 2 is -15.777778
weight of 3 is -7.000000
not used!
deny
deny
deny
deny
deny
deny
deny
deny
deny
deny
deny
deny
deny
deny
weight of 0 is -3.957403
weight of 1 is -0.428789
weight of 2 is -16.488889
weight of 3 is -8.000000
not used!
deny
deny
weight of 0 is -4.450542
weight of 1 is -0.459249
weight of 2 is -16.755556
weight of 3 is -9.000000
not used!
deny
deny
deny
deny
deny
deny
deny
deny
deny
deny
deny
deny
weight of 0 is -3.957029
weight of 1 is -0.459179
weight of 2 is -15.688889
weight of 3 is -8.000000
used!
weight of 0 is -3.463516
weight of 1 is -0.459108
weight of 2 is -14.622222
weight of 3 is -7.000000
used!
weight of 0 is -3.957029
weight of 1 is -0.474744
weight of 2 is -15.155556
weight of 3 is -8.000000
not used!
deny
deny
weight of 0 is -3.463516
weight of 1 is -0.474636
weight of 2 is -14.088889
weight of 3 is -7.000000
used!
weight of 0 is -2.970003
weight of 1 is -0.474528
weight of 2 is -13.022222
weight of 3 is -6.000000
used!
weight of 0 is -3.463516
weight of 1 is -0.474840
weight of 2 is -13.022222
weight of 3 is -7.000000
not used!
deny
deny
deny
deny
weight of 0 is -2.970003
weight of 1 is -0.473920
weight of 2 is -12.311111
weight of 3 is -6.000000
used!
weight of 0 is -2.476490
weight of 1 is -0.472999
weight of 2 is -11.600000
weight of 3 is -5.000000
used!
deny
deny
weight of 0 is -2.969820
weight of 1 is -0.488891
weight of 2 is -11.777778
weight of 3 is -6.000000
not used!
deny
deny
weight of 0 is -3.463832
weight of 1 is -0.544487
weight of 2 is -12.311111
weight of 3 is -7.000000
not used!
deny
deny
deny
deny
deny
deny
weight of 0 is -2.970319
weight of 1 is -0.544482
weight of 2 is -12.311111
weight of 3 is -6.000000
used!
weight of 0 is -2.476806
weight of 1 is -0.544478
weight of 2 is -12.311111
weight of 3 is -5.000000
used!
deny
deny
weight of 0 is -1.983294
weight of 1 is -0.527414
weight of 2 is -11.955556
weight of 3 is -4.000000
used!
weight of 0 is -1.489781
weight of 1 is -0.510351
weight of 2 is -11.600000
weight of 3 is -3.000000
used!
weight of 0 is -1.981775
weight of 1 is -0.623694
weight of 2 is -12.133333
weight of 3 is -4.000000
not used!
deny
deny
weight of 0 is -2.475288
weight of 1 is -0.737087
weight of 2 is -12.133333
weight of 3 is -5.000000
not used!
deny
deny
weight of 0 is -1.981775
weight of 1 is -0.737073
weight of 2 is -12.133333
weight of 3 is -4.000000
used!
weight of 0 is -1.488262
weight of 1 is -0.737059
weight of 2 is -12.133333
weight of 3 is -3.000000
used!
deny
deny
weight of 0 is -1.981922
weight of 1 is -0.737191
weight of 2 is -13.022222
weight of 3 is -4.000000
not used!
deny
deny
deny
deny
weight of 0 is -2.475811
weight of 1 is -0.737246
weight of 2 is -14.000000
weight of 3 is -5.000000
not used!
deny
deny
weight of 0 is -1.982298
weight of 1 is -0.702479
weight of 2 is -14.000000
weight of 3 is -4.000000
used!
weight of 0 is -1.488785
weight of 1 is -0.667713
weight of 2 is -14.000000
weight of 3 is -3.000000
used!
weight of 0 is -1.982675
weight of 1 is -0.667738
weight of 2 is -14.533333
weight of 3 is -4.000000
not used!
deny
deny
deny
deny
deny
deny
weight of 0 is -2.476713
weight of 1 is -0.669381
weight of 2 is -15.777778
weight of 3 is -5.000000
not used!
deny
deny
deny
deny
weight of 0 is -1.983200
weight of 1 is -0.669250
weight of 2 is -15.777778
weight of 3 is -4.000000
used!
weight of 0 is -1.489687
weight of 1 is -0.669118
weight of 2 is -15.777778
weight of 3 is -3.000000
used!
deny
deny
deny
deny
deny
deny
deny
deny
deny
deny
deny
deny
deny
deny
weight of 0 is -0.995862
weight of 1 is -0.663062
weight of 2 is -14.444444
weight of 3 is -2.000000
used!
weight of 0 is -0.502037
weight of 1 is -0.657005
weight of 2 is -13.111111
weight of 3 is -1.000000
used!
deny
deny
deny
deny
deny
deny
deny
deny
weight of 0 is -0.008525
weight of 1 is -0.656871
weight of 2 is -12.400000
weight of 3 is 0.000000
used!
weight of 0 is 0.484988
weight of 1 is -0.656737
weight of 2 is -11.688889
weight of 3 is 1.000000
used!
deny
deny
weight of 0 is 0.978501
weight of 1 is -0.652585
weight of 2 is -11.688889
weight of 3 is 2.000000
used!
weight of 0 is 1.472014
weight of 1 is -0.648433
weight of 2 is -11.688889
weight of 3 is 3.000000
used!
accept
accept
weight of 0 is 1.965527
weight of 1 is -0.640636
weight of 2 is -11.688889
weight of 3 is 4.000000
used!
weight of 0 is 2.459039
weight of 1 is -0.632840
weight of 2 is -11.688889
weight of 3 is 5.000000
used!
weight of 0 is 1.965026
weight of 1 is -0.673582
weight of 2 is -12.577778
weight of 3 is 4.000000
not used!
weight of 0 is 1.471012
weight of 1 is -0.673643
weight of 2 is -13.822222
weight of 3 is 3.000000
not used!
deny
deny
accept
accept
accept
accept
weight of 0 is 1.964910
weight of 1 is -0.667851
weight of 2 is -13.511111
weight of 3 is 4.000000
used!
weight of 0 is 2.458807
weight of 1 is -0.662060
weight of 2 is -13.200000
weight of 3 is 5.000000
used!
weight of 0 is 1.965295
weight of 1 is -0.702800
weight of 2 is -13.733333
weight of 3 is 4.000000
not used!
weight of 0 is 1.471283
weight of 1 is -0.743397
weight of 2 is -14.088889
weight of 3 is 3.000000
not used!
weight of 0 is 0.977770
weight of 1 is -0.783940
weight of 2 is -14.444444
weight of 3 is 2.000000
not used!
weight of 0 is 0.484257
weight of 1 is -0.809631
weight of 2 is -15.511111
weight of 3 is 1.000000
not used!
accept
accept
accept
accept
weight of 0 is -0.009484
weight of 1 is -0.828294
weight of 2 is -15.688889
weight of 3 is 0.000000
not used!
accept
accept
deny
deny
weight of 0 is -0.503225
weight of 1 is -0.846887
weight of 2 is -16.933333
weight of 3 is -1.000000
not used!
weight of 0 is -0.996738
weight of 1 is -0.863901
weight of 2 is -17.288889
weight of 3 is -2.000000
not used!
deny
deny
deny
deny
weight of 0 is -0.503225
weight of 1 is -0.859707
weight of 2 is -16.222222
weight of 3 is -1.000000
used!
weight of 0 is -0.009712
weight of 1 is -0.855512
weight of 2 is -15.155556
weight of 3 is 0.000000
used!
deny
deny
accept
accept
weight of 0 is 0.483800
weight of 1 is -0.855508
weight of 2 is -15.155556
weight of 3 is 1.000000
used!
weight of 0 is 0.977313
weight of 1 is -0.855503
weight of 2 is -15.155556
weight of 3 is 2.000000
used!
deny
deny
deny
deny
accept
accept
accept
accept
weight of 0 is 0.483800
weight of 1 is -0.855510
weight of 2 is -15.155556
weight of 3 is 1.000000
not used!
deny
deny
weight of 0 is -0.009712
weight of 1 is -0.855562
weight of 2 is -15.333333
weight of 3 is 0.000000
not used!
deny
deny
accept
accept
deny
deny
deny
deny
accept
accept
accept
accept
deny
deny
deny
deny
deny
deny
weight of 0 is 0.484308
weight of 1 is -0.814270
weight of 2 is -14.800000
weight of 3 is 1.000000
used!
weight of 0 is 0.978328
weight of 1 is -0.772977
weight of 2 is -14.266667
weight of 3 is 2.000000
used!
deny
deny
weight of 0 is 1.472348
weight of 1 is -0.731749
weight of 2 is -13.377778
weight of 3 is 3.000000
used!
weight of 0 is 1.966369
weight of 1 is -0.690520
weight of 2 is -12.488889
weight of 3 is 4.000000
used!
accept
accept
accept
accept
deny
deny
accept
accept
deny
deny
accept
accept
weight of 0 is 1.472856
weight of 1 is -0.690745
weight of 2 is -12.488889
weight of 3 is 3.000000
not used!
deny
deny
deny
deny
deny
deny
deny
deny
deny
deny
deny
deny
weight of 0 is 1.966804
weight of 1 is -0.690636
weight of 2 is -11.511111
weight of 3 is 4.000000
used!
weight of 0 is 2.460753
weight of 1 is -0.690527
weight of 2 is -10.533333
weight of 3 is 5.000000
used!
deny
deny
weight of 0 is 2.954701
weight of 1 is -0.688935
weight of 2 is -9.822222
weight of 3 is 6.000000
used!
weight of 0 is 3.448650
weight of 1 is -0.687343
weight of 2 is -9.111111
weight of 3 is 7.000000
used!
weight of 0 is 2.955137
weight of 1 is -0.687345
weight of 2 is -9.111111
weight of 3 is 6.000000
not used!
weight of 0 is 2.461624
weight of 1 is -0.687352
weight of 2 is -9.111111
weight of 3 is 5.000000
not used!
accept
accept
deny
deny
accept
accept
accept
accept
weight of 0 is 1.968112
weight of 1 is -0.688254
weight of 2 is -9.111111
weight of 3 is 4.000000
not used!
accept
accept
accept
accept
deny
deny
weight of 0 is 1.474599
weight of 1 is -0.688259
weight of 2 is -9.111111
weight of 3 is 3.000000
not used!
accept
accept
accept
accept
accept
accept
weight of 0 is 1.968546
weight of 1 is -0.688205
weight of 2 is -8.311111
weight of 3 is 4.000000
used!
weight of 0 is 2.462494
weight of 1 is -0.688150
weight of 2 is -7.511111
weight of 3 is 5.000000
used!
deny
deny
weight of 0 is 2.956442
weight of 1 is -0.688126
weight of 2 is -7.155556
weight of 3 is 6.000000
used!
weight of 0 is 3.450391
weight of 1 is -0.688101
weight of 2 is -6.800000
weight of 3 is 7.000000
used!
deny
deny
accept
accept
accept
accept
accept
accept
accept
accept
accept
accept
warn: ignoring syscall mprotect(...)
deny
deny
accept
accept
accept
accept
deny
deny
accept
accept
accept
accept
accept
accept
accept
accept
accept
accept
accept
accept
accept
accept
accept
accept
accept
accept
accept
accept
accept
accept
accept
accept
accept
accept
accept
accept
accept
accept
accept
accept
accept
accept
accept
accept
accept
accept
accept
accept
accept
accept
accept
accept
accept
accept
deny
deny
accept
accept
accept
accept
accept
accept
weight of 0 is 2.956541
weight of 1 is -0.719100
weight of 2 is -6.800000
weight of 3 is 6.000000
not used!
accept
accept
deny
deny
weight of 0 is 2.463028
weight of 1 is -0.740048
weight of 2 is -6.800000
weight of 3 is 5.000000
not used!
weight of 0 is 1.969515
weight of 1 is -0.757426
weight of 2 is -6.800000
weight of 3 is 4.000000
not used!
accept
accept
weight of 0 is 1.475972
weight of 1 is -0.785034
weight of 2 is -6.800000
weight of 3 is 3.000000
not used!
weight of 0 is 0.982460
weight of 1 is -0.826317
weight of 2 is -6.800000
weight of 3 is 2.000000
not used!
weight of 0 is 0.488947
weight of 1 is -0.842197
weight of 2 is -6.800000
weight of 3 is 1.000000
not used!
accept
accept
weight of 0 is -0.004757
weight of 1 is -0.857753
weight of 2 is -6.800000
weight of 3 is 0.000000
not used!
deny
deny
deny
deny
deny
deny
accept
accept
deny
deny
weight of 0 is -0.498270
weight of 1 is -0.895104
weight of 2 is -7.155556
weight of 3 is -1.000000
not used!
deny
deny
deny
deny
weight of 0 is -0.991783
weight of 1 is -0.895254
weight of 2 is -7.511111
weight of 3 is -2.000000
not used!
deny
deny
deny
deny
weight of 0 is -0.497940
weight of 1 is -0.888726
weight of 2 is -7.066667
weight of 3 is -1.000000
used!
weight of 0 is -0.004097
weight of 1 is -0.882197
weight of 2 is -6.622222
weight of 3 is 0.000000
used!
accept
accept
accept
accept
accept
accept
weight of 0 is -0.497817
weight of 1 is -0.882296
weight of 2 is -6.622222
weight of 3 is -1.000000
not used!
weight of 0 is -0.991330
weight of 1 is -0.888550
weight of 2 is -6.622222
weight of 3 is -2.000000
not used!
weight of 0 is -1.484843
weight of 1 is -0.888606
weight of 2 is -6.622222
weight of 3 is -3.000000
not used!
deny
deny
deny
deny
deny
deny
deny
deny
weight of 0 is -1.978865
weight of 1 is -0.930088
weight of 2 is -6.622222
weight of 3 is -4.000000
not used!
deny
deny
weight of 0 is -1.484912
weight of 1 is -0.929979
weight of 2 is -5.466667
weight of 3 is -3.000000
used!
weight of 0 is -0.990959
weight of 1 is -0.929870
weight of 2 is -4.311111
weight of 3 is -2.000000
used!
deny
deny
weight of 0 is -0.497006
weight of 1 is -0.886948
weight of 2 is -3.422222
weight of 3 is -1.000000
used!
weight of 0 is -0.003054
weight of 1 is -0.844026
weight of 2 is -2.533333
weight of 3 is 0.000000
used!
weight of 0 is -0.496566
weight of 1 is -0.869434
weight of 2 is -3.244444
weight of 3 is -1.000000
not used!
deny
deny
deny
deny
weight of 0 is -0.002614
weight of 1 is -0.869380
weight of 2 is -2.266667
weight of 3 is 0.000000
used!
weight of 0 is 0.491338
weight of 1 is -0.869326
weight of 2 is -1.288889
weight of 3 is 1.000000
used!
warn: ignoring syscall mprotect(...)
weight of 0 is -0.002175
weight of 1 is -0.892070
weight of 2 is -1.644444
weight of 3 is 0.000000
not used!
weight of 0 is -0.495688
weight of 1 is -0.932911
weight of 2 is -1.644444
weight of 3 is -1.000000
not used!
deny
deny
deny
deny
deny
deny
deny
deny
deny
deny
deny
deny
deny
deny
weight of 0 is 0.021851
weight of 1 is -0.932653
weight of 2 is -1.288889
weight of 3 is 0.000000
used!
weight of 0 is 0.539391
weight of 1 is -0.932395
weight of 2 is -0.933333
weight of 3 is 1.000000
used!
accept
accept
weight of 0 is 1.033411
weight of 1 is 0.981935
weight of 2 is -0.577778
weight of 3 is 2.000000
used!
weight of 0 is 1.527432
weight of 1 is 2.896265
weight of 2 is -0.222222
weight of 3 is 3.000000
used!
accept
accept
accept
accept
weight of 0 is 2.044971
weight of 1 is 4.810609
weight of 2 is -0.222222
weight of 3 is 4.000000
used!
weight of 0 is 2.562511
weight of 1 is 6.724953
weight of 2 is -0.222222
weight of 3 is 5.000000
used!
accept
accept
accept
accept
weight of 0 is 3.056463
weight of 1 is 6.724978
weight of 2 is 0.311111
weight of 3 is 6.000000
used!
weight of 0 is 3.550416
weight of 1 is 6.725003
weight of 2 is 0.844444
weight of 3 is 7.000000
used!
accept
accept
weight of 0 is 3.044613
weight of 1 is 6.724946
weight of 2 is 0.666667
weight of 3 is 6.000000
not used!
weight of 0 is 2.550596
weight of 1 is 5.765553
weight of 2 is 0.666667
weight of 3 is 5.000000
not used!
accept
accept
weight of 0 is 2.057083
weight of 1 is 5.765222
weight of 2 is -0.222222
weight of 3 is 4.000000
not used!
accept
accept
weight of 0 is 1.562903
weight of 1 is 5.705469
weight of 2 is -1.111111
weight of 3 is 3.000000
not used!
weight of 0 is 1.069390
weight of 1 is 5.645770
weight of 2 is -1.111111
weight of 3 is 2.000000
not used!
accept
accept
accept
accept
accept
accept
accept
accept
accept
accept
accept
accept
accept
accept
weight of 0 is 0.575877
weight of 1 is 5.645763
weight of 2 is -1.466667
weight of 3 is 1.000000
not used!
accept
accept
accept
accept
weight of 0 is 0.082365
weight of 1 is 5.645385
weight of 2 is -1.644444
weight of 3 is 0.000000
not used!
deny
deny
accept
accept
accept
accept
weight of 0 is -0.409432
weight of 1 is 5.520696
weight of 2 is -2.044444
weight of 3 is -1.000000
not used!
weight of 0 is -0.902945
weight of 1 is 5.380981
weight of 2 is -2.044444
weight of 3 is -2.000000
not used!
weight of 0 is -1.397898
weight of 1 is 5.280269
weight of 2 is -2.733333
weight of 3 is -3.000000
not used!
accept
accept
weight of 0 is -1.891737
weight of 1 is 5.185837
weight of 2 is -2.822222
weight of 3 is -4.000000
not used!
deny
deny
deny
deny
deny
deny
deny
deny
deny
deny
deny
deny
weight of 0 is -1.374248
weight of 1 is 5.186034
weight of 2 is -2.644444
weight of 3 is -3.000000
used!
weight of 0 is -0.856759
weight of 1 is 5.186231
weight of 2 is -2.466667
weight of 3 is -2.000000
used!
deny
deny
weight of 0 is -0.339270
weight of 1 is 5.186333
weight of 2 is -2.022222
weight of 3 is -1.000000
used!
weight of 0 is 0.178219
weight of 1 is 5.186435
weight of 2 is -1.577778
weight of 3 is 0.000000
used!
weight of 0 is -0.315624
weight of 1 is 5.186414
weight of 2 is -1.666667
weight of 3 is -1.000000
not used!
deny
deny
accept
accept
warn: ignoring syscall mprotect(...)
accept
accept
deny
deny
deny
deny
deny
deny
weight of 0 is 0.209552
weight of 1 is 5.186457
weight of 2 is -1.666667
weight of 3 is 0.000000
used!
weight of 0 is 0.734729
weight of 1 is 5.186499
weight of 2 is -1.666667
weight of 3 is 1.000000
used!
accept
accept
weight of 0 is 1.259906
weight of 1 is 5.186518
weight of 2 is -1.666667
weight of 3 is 2.000000
used!
weight of 0 is 1.785083
weight of 1 is 5.186536
weight of 2 is -1.666667
weight of 3 is 3.000000
used!
accept
accept
weight of 0 is 1.291570
weight of 1 is 5.164160
weight of 2 is -1.666667
weight of 3 is 2.000000
not used!
accept
accept
weight of 0 is 0.798057
weight of 1 is 5.138534
weight of 2 is -1.666667
weight of 3 is 1.000000
not used!
accept
accept
accept
accept
accept
accept
accept
accept
accept
accept
accept
accept
weight of 0 is 1.315546
weight of 1 is 5.138536
weight of 2 is -1.666667
weight of 3 is 2.000000
used!
weight of 0 is 1.833035
weight of 1 is 5.138538
weight of 2 is -1.666667
weight of 3 is 3.000000
used!
accept
accept
accept
accept
accept
accept
accept
accept
accept
accept
accept
accept
accept
accept
accept
accept
accept
accept
accept
accept
weight of 0 is 1.339016
weight of 1 is 5.138428
weight of 2 is -2.911111
weight of 3 is 2.000000
not used!
weight of 0 is 0.821476
weight of 1 is 5.138372
weight of 2 is -2.911111
weight of 3 is 1.000000
not used!
accept
accept
weight of 0 is 1.338966
weight of 1 is 5.138379
weight of 2 is -1.844444
weight of 3 is 2.000000
used!
weight of 0 is 1.856456
weight of 1 is 5.138386
weight of 2 is -0.777778
weight of 3 is 3.000000
used!
weight of 0 is 1.362434
weight of 1 is 3.224204
weight of 2 is -2.022222
weight of 3 is 2.000000
not used!
weight of 0 is 0.856348
weight of 1 is 2.236831
weight of 2 is -2.377778
weight of 3 is 1.000000
not used!
weight of 0 is 0.362373
weight of 1 is 1.247805
weight of 2 is -3.622222
weight of 3 is 0.000000
not used!
weight of 0 is -0.143560
weight of 1 is 0.253383
weight of 2 is -4.311111
weight of 3 is -1.000000
not used!
deny
deny
deny
deny
deny
deny
deny
deny
deny
deny
deny
deny
weight of 0 is 0.373933
weight of 1 is 0.253485
weight of 2 is -3.688889
weight of 3 is 0.000000
used!
weight of 0 is 0.891427
weight of 1 is 0.253587
weight of 2 is -3.066667
weight of 3 is 1.000000
used!
deny
deny
weight of 0 is 1.408920
weight of 1 is 0.253799
weight of 2 is -2.711111
weight of 3 is 2.000000
used!
weight of 0 is 1.926413
weight of 1 is 0.254010
weight of 2 is -2.355556
weight of 3 is 3.000000
used!
weight of 0 is 1.432550
weight of 1 is -0.732156
weight of 2 is -2.800000
weight of 3 is 2.000000
not used!
weight of 0 is 0.938580
weight of 1 is -0.740750
weight of 2 is -3.822222
weight of 3 is 1.000000
not used!
weight of 0 is 0.444726
weight of 1 is -0.749998
weight of 2 is -4.444444
weight of 3 is 0.000000
not used!
weight of 0 is -0.049228
weight of 1 is -0.757902
weight of 2 is -4.622222
weight of 3 is -1.000000
not used!
weight of 0 is -0.543079
weight of 1 is -0.766129
weight of 2 is -4.888889
weight of 3 is -2.000000
not used!
weight of 0 is -1.037025
weight of 1 is -0.773793
weight of 2 is -5.066667
weight of 3 is -3.000000
not used!
weight of 0 is -1.530878
weight of 1 is -0.781295
weight of 2 is -6.222222
weight of 3 is -4.000000
not used!
deny
deny
weight of 0 is -2.024828
weight of 1 is -0.789077
weight of 2 is -6.244444
weight of 3 is -5.000000
not used!
deny
deny
weight of 0 is -2.518679
weight of 1 is -0.796944
weight of 2 is -6.688889
weight of 3 is -6.000000
not used!
deny
deny
weight of 0 is -2.001186
weight of 1 is -0.796919
weight of 2 is -6.688889
weight of 3 is -5.000000
used!
weight of 0 is -1.483693
weight of 1 is -0.796894
weight of 2 is -6.688889
weight of 3 is -4.000000
used!
deny
deny
weight of 0 is -1.977640
weight of 1 is -0.796962
weight of 2 is -6.711111
weight of 3 is -5.000000
not used!
weight of 0 is -2.471492
weight of 1 is -0.804643
weight of 2 is -6.977778
weight of 3 is -6.000000
not used!
deny
deny
warn: ignoring syscall mprotect(...)
deny
deny
deny
deny
deny
deny
weight of 0 is -1.931847
weight of 1 is 2.935296
weight of 2 is -6.266667
weight of 3 is -5.000000
used!
weight of 0 is -1.392203
weight of 1 is 6.675236
weight of 2 is -5.555556
weight of 3 is -4.000000
used!
deny
deny
weight of 0 is -0.852558
weight of 1 is 6.675245
weight of 2 is -5.555556
weight of 3 is -3.000000
used!
weight of 0 is -0.312914
weight of 1 is 6.675254
weight of 2 is -5.555556
weight of 3 is -2.000000
used!
deny
deny
weight of 0 is 0.226731
weight of 1 is 6.675273
weight of 2 is -5.555556
weight of 3 is -1.000000
used!
weight of 0 is 0.766376
weight of 1 is 6.675292
weight of 2 is -5.555556
weight of 3 is 0.000000
used!
accept
accept
weight of 0 is 1.306020
weight of 1 is 6.675311
weight of 2 is -5.555556
weight of 3 is 1.000000
used!
weight of 0 is 1.845666
weight of 1 is 6.675329
weight of 2 is -5.555556
weight of 3 is 2.000000
used!
accept
accept
accept
accept
accept
accept
accept
accept
accept
accept
accept
accept
accept
accept
accept
accept
accept
accept
accept
accept
accept
accept
accept
accept
accept
accept
accept
accept
accept
accept
weight of 0 is 1.351950
weight of 1 is 4.757510
weight of 2 is -6.800000
weight of 3 is 1.000000
not used!
accept
accept
accept
accept
deny
deny
accept
accept
weight of 0 is 0.826772
weight of 1 is 4.757453
weight of 2 is -6.800000
weight of 3 is 0.000000
not used!
deny
deny
deny
deny
accept
accept
weight of 0 is 0.309215
weight of 1 is 4.113151
weight of 2 is -7.511111
weight of 3 is -1.000000
not used!
weight of 0 is -0.216258
weight of 1 is 3.468792
weight of 2 is -7.688889
weight of 3 is -2.000000
not used!
weight of 0 is -0.733816
weight of 1 is 2.824501
weight of 2 is -7.866667
weight of 3 is -3.000000
not used!
weight of 0 is -1.251374
weight of 1 is 2.824327
weight of 2 is -8.400000
weight of 3 is -4.000000
not used!
deny
deny
weight of 0 is -1.768878
weight of 1 is 2.823286
weight of 2 is -9.466667
weight of 3 is -5.000000
not used!
accept
accept
accept
accept
deny
deny
deny
deny
deny
deny
accept
accept
deny
deny
deny
deny
deny
deny
deny
deny
weight of 0 is -1.275366
weight of 1 is 4.772619
weight of 2 is -9.288889
weight of 3 is -4.000000
used!
weight of 0 is -0.781853
weight of 1 is 6.721952
weight of 2 is -9.111111
weight of 3 is -3.000000
used!
deny
deny
weight of 0 is -0.288340
weight of 1 is 6.721969
weight of 2 is -9.111111
weight of 3 is -2.000000
used!
weight of 0 is 0.205173
weight of 1 is 6.721985
weight of 2 is -9.111111
weight of 3 is -1.000000
used!
weight of 0 is -0.312139
weight of 1 is 6.719801
weight of 2 is -9.133333
weight of 3 is -2.000000
not used!
deny
deny
weight of 0 is 0.181374
weight of 1 is 6.719820
weight of 2 is -9.133333
weight of 3 is -1.000000
used!
weight of 0 is 0.674887
weight of 1 is 6.719839
weight of 2 is -9.133333
weight of 3 is 0.000000
used!
accept
accept
weight of 0 is 1.168399
weight of 1 is 6.719857
weight of 2 is -9.133333
weight of 3 is 1.000000
used!
weight of 0 is 1.661912
weight of 1 is 6.719876
weight of 2 is -9.133333
weight of 3 is 2.000000
used!
deny
deny
accept
accept
accept
accept
accept
accept
deny
deny
accept
accept
weight of 0 is 1.168053
weight of 1 is 4.807156
weight of 2 is -10.111111
weight of 3 is 1.000000
not used!
weight of 0 is 0.674092
weight of 1 is 4.798887
weight of 2 is -11.266667
weight of 3 is 0.000000
not used!
accept
accept
weight of 0 is 0.180126
weight of 1 is 4.790519
weight of 2 is -12.288889
weight of 3 is -1.000000
not used!
weight of 0 is -0.313735
weight of 1 is 4.782236
weight of 2 is -13.444444
weight of 3 is -2.000000
not used!
weight of 0 is -0.807703
weight of 1 is 4.773775
weight of 2 is -13.666667
weight of 3 is -3.000000
not used!
weight of 0 is -1.301669
weight of 1 is 4.773672
weight of 2 is -14.644444
weight of 3 is -4.000000
not used!
deny
deny
deny
deny
weight of 0 is -1.795634
weight of 1 is 4.773649
weight of 2 is -15.311111
weight of 3 is -5.000000
not used!
deny
deny
deny
deny
deny
deny
deny
deny
deny
deny
weight of 0 is -1.302122
weight of 1 is 4.773999
weight of 2 is -14.600000
weight of 3 is -4.000000
used!
weight of 0 is -0.808609
weight of 1 is 4.774349
weight of 2 is -13.888889
weight of 3 is -3.000000
used!
deny
deny
deny
deny
weight of 0 is -0.315096
weight of 1 is 4.774358
weight of 2 is -13.888889
weight of 3 is -2.000000
used!
weight of 0 is 0.178417
weight of 1 is 4.774368
weight of 2 is -13.888889
weight of 3 is -1.000000
used!
deny
deny
weight of 0 is 0.671930
weight of 1 is 4.774387
weight of 2 is -13.888889
weight of 3 is 0.000000
used!
weight of 0 is 1.165442
weight of 1 is 4.774405
weight of 2 is -13.888889
weight of 3 is 1.000000
used!
accept
accept
accept
accept
weight of 0 is 1.658955
weight of 1 is 4.903406
weight of 2 is -13.888889
weight of 3 is 2.000000
used!
weight of 0 is 2.152468
weight of 1 is 5.032406
weight of 2 is -13.888889
weight of 3 is 3.000000
used!
accept
accept
accept
accept
accept
accept
accept
accept
accept
accept
accept
accept
accept
accept
accept
accept
deny
deny
accept
accept
accept
accept
accept
accept
accept
accept
accept
accept
accept
accept
accept
accept
accept
accept
accept
accept
accept
accept
deny
deny
accept
accept
deny
deny
deny
deny
accept
accept
deny
deny
accept
accept
accept
accept
accept
accept
accept
accept
accept
accept
accept
accept
accept
accept
deny
deny
deny
deny
accept
accept
accept
accept
weight of 0 is 1.612817
weight of 1 is 5.032350
weight of 2 is -13.888889
weight of 3 is 2.000000
not used!
accept
accept
weight of 0 is 1.095256
weight of 1 is 3.212645
weight of 2 is -14.777778
weight of 3 is 1.000000
not used!
accept
accept
weight of 0 is 0.555338
weight of 1 is 1.392883
weight of 2 is -14.777778
weight of 3 is 0.000000
not used!
weight of 0 is 0.037776
weight of 1 is -0.426811
weight of 2 is -15.133333
weight of 3 is -1.000000
not used!
deny
deny
weight of 0 is -0.487647
weight of 1 is -1.072203
weight of 2 is -16.377778
weight of 3 is -2.000000
not used!
deny
deny
deny
deny
deny
deny
weight of 0 is -0.981160
weight of 1 is -3.666323
weight of 2 is -16.911111
weight of 3 is -3.000000
not used!
deny
deny
deny
deny
deny
deny
deny
deny
deny
deny
deny
deny
weight of 0 is -0.441293
weight of 1 is -3.666305
weight of 2 is -15.666667
weight of 3 is -2.000000
used!
weight of 0 is 0.098573
weight of 1 is -3.666288
weight of 2 is -14.422222
weight of 3 is -1.000000
used!
deny
deny
weight of 0 is 0.638439
weight of 1 is -2.510318
weight of 2 is -13.266667
weight of 3 is 0.000000
used!
weight of 0 is 1.178306
weight of 1 is -1.354348
weight of 2 is -12.111111
weight of 3 is 1.000000
used!
accept
accept
weight of 0 is 1.718172
weight of 1 is -1.354273
weight of 2 is -10.866667
weight of 3 is 2.000000
used!
weight of 0 is 2.258039
weight of 1 is -1.354197
weight of 2 is -9.622222
weight of 3 is 3.000000
used!
accept
accept
weight of 0 is 1.764526
weight of 1 is -1.354209
weight of 2 is -9.622222
weight of 3 is 2.000000
not used!
deny
deny
deny
deny
weight of 0 is 2.304393
weight of 1 is -1.354199
weight of 2 is -8.377778
weight of 3 is 3.000000
used!
weight of 0 is 2.844261
weight of 1 is -1.354188
weight of 2 is -7.133333
weight of 3 is 4.000000
used!
accept
accept
weight of 0 is 3.384129
weight of 1 is 0.471022
weight of 2 is -6.511111
weight of 3 is 5.000000
used!
weight of 0 is 3.923997
weight of 1 is 2.296232
weight of 2 is -5.888889
weight of 3 is 6.000000
used!
accept
accept
accept
accept
weight of 0 is 3.430277
weight of 1 is 2.195464
weight of 2 is -5.888889
weight of 3 is 5.000000
not used!
accept
accept
accept
accept
weight of 0 is 3.970147
weight of 1 is 3.350165
weight of 2 is -4.733333
weight of 3 is 6.000000
used!
weight of 0 is 4.510017
weight of 1 is 4.504865
weight of 2 is -3.577778
weight of 3 is 7.000000
used!
accept
accept
accept
accept
accept
accept
accept
accept
weight of 0 is 4.016504
weight of 1 is 2.571673
weight of 2 is -3.577778
weight of 3 is 6.000000
not used!
accept
accept
accept
accept
accept
accept
weight of 0 is 3.522991
weight of 1 is 0.622229
weight of 2 is -3.577778
weight of 3 is 5.000000
not used!
accept
accept
accept
accept
accept
accept
accept
accept
accept
accept
weight of 0 is 3.029478
weight of 1 is 0.622210
weight of 2 is -3.577778
weight of 3 is 4.000000
not used!
accept
accept
weight of 0 is 2.535966
weight of 1 is 0.622208
weight of 2 is -3.577778
weight of 3 is 3.000000
not used!
accept
accept
weight of 0 is 2.042453
weight of 1 is 0.621947
weight of 2 is -3.755556
weight of 3 is 2.000000
not used!
accept
accept
accept
accept
accept
accept
accept
accept
weight of 0 is 1.548940
weight of 1 is 0.621196
weight of 2 is -3.755556
weight of 3 is 1.000000
not used!
accept
accept
accept
accept
accept
accept
accept
accept
deny
deny
weight of 0 is 1.055427
weight of 1 is 0.492165
weight of 2 is -3.755556
weight of 3 is 0.000000
not used!
accept
accept
deny
deny
accept
accept
deny
deny
weight of 0 is 0.561914
weight of 1 is -1.456116
weight of 2 is -4.466667
weight of 3 is -1.000000
not used!
deny
deny
deny
deny
weight of 0 is 1.055427
weight of 1 is -1.456102
weight of 2 is -4.466667
weight of 3 is 0.000000
used!
weight of 0 is 1.548940
weight of 1 is -1.456088
weight of 2 is -4.466667
weight of 3 is 1.000000
used!
weight of 0 is 1.057144
weight of 1 is -1.584903
weight of 2 is -4.466667
weight of 3 is 0.000000
not used!
deny
deny
accept
accept
weight of 0 is 1.550657
weight of 1 is -1.584015
weight of 2 is -4.111111
weight of 3 is 1.000000
used!
weight of 0 is 2.044170
weight of 1 is -1.583128
weight of 2 is -3.755556
weight of 3 is 2.000000
used!
accept
accept
deny
deny
accept
accept
weight of 0 is 1.518634
weight of 1 is -1.583179
weight of 2 is -3.777778
weight of 3 is 1.000000
not used!
accept
accept
accept
accept
deny
deny
accept
accept
deny
deny
weight of 0 is 1.023680
weight of 1 is -1.585711
weight of 2 is -4.088889
weight of 3 is 0.000000
not used!
weight of 0 is 0.528725
weight of 1 is -1.585750
weight of 2 is -4.244444
weight of 3 is -1.000000
not used!
deny
deny
deny
deny
deny
deny
deny
deny
weight of 0 is 1.054491
weight of 1 is -0.444125
weight of 2 is -4.066667
weight of 3 is 0.000000
used!
weight of 0 is 1.580256
weight of 1 is 0.697501
weight of 2 is -3.888889
weight of 3 is 1.000000
used!
accept
accept
weight of 0 is 2.120046
weight of 1 is 4.464379
weight of 2 is -3.177778
weight of 3 is 2.000000
used!
weight of 0 is 2.659837
weight of 1 is 8.231257
weight of 2 is -2.466667
weight of 3 is 3.000000
used!
accept
accept
weight of 0 is 3.185602
weight of 1 is 8.231278
weight of 2 is -2.111111
weight of 3 is 4.000000
used!
weight of 0 is 3.711368
weight of 1 is 8.231299
weight of 2 is -1.755556
weight of 3 is 5.000000
used!
accept
accept
accept
accept
weight of 0 is 3.217855
weight of 1 is 6.286347
weight of 2 is -1.755556
weight of 3 is 4.000000
not used!
accept
accept
accept
accept
weight of 0 is 2.724581
weight of 1 is 6.135945
weight of 2 is -1.755556
weight of 3 is 3.000000
not used!
accept
accept
accept
accept
accept
accept
accept
accept
weight of 0 is 2.229625
weight of 1 is 4.315980
weight of 2 is -1.755556
weight of 3 is 2.000000
not used!
accept
accept
accept
accept
weight of 0 is 1.734509
weight of 1 is 4.313444
weight of 2 is -1.755556
weight of 3 is 1.000000
not used!
weight of 0 is 1.217097
weight of 1 is 2.498603
weight of 2 is -2.377778
weight of 3 is 0.000000
not used!
accept
accept
accept
accept
accept
accept
accept
accept
accept
accept
accept
accept
accept
accept
weight of 0 is 0.711030
weight of 1 is 1.575187
weight of 2 is -2.377778
weight of 3 is -1.000000
not used!
deny
deny
deny
deny
deny
deny
weight of 0 is 1.236804
weight of 1 is 1.575244
weight of 2 is -2.200000
weight of 3 is 0.000000
used!
weight of 0 is 1.762579
weight of 1 is 1.575300
weight of 2 is -2.022222
weight of 3 is 1.000000
used!
accept
accept
weight of 0 is 2.288354
weight of 1 is 1.575321
weight of 2 is -1.666667
weight of 3 is 2.000000
used!
weight of 0 is 2.814130
weight of 1 is 1.575342
weight of 2 is -1.311111
weight of 3 is 3.000000
used!
accept
accept
accept
accept
accept
accept
accept
accept
accept
accept
accept
accept
weight of 0 is 2.274263
weight of 1 is 1.575323
weight of 2 is -1.311111
weight of 3 is 2.000000
not used!
accept
accept
accept
accept
accept
accept
weight of 0 is 1.734394
weight of 1 is 1.575267
weight of 2 is -1.311111
weight of 3 is 1.000000
not used!
accept
accept
weight of 0 is 1.240881
weight of 1 is -2.198104
weight of 2 is -2.555556
weight of 3 is 0.000000
not used!
deny
deny
deny
deny
weight of 0 is 0.747369
weight of 1 is -5.971304
weight of 2 is -2.555556
weight of 3 is -1.000000
not used!
deny
deny
weight of 0 is 0.253856
weight of 1 is -5.990223
weight of 2 is -2.555556
weight of 3 is -2.000000
not used!
deny
deny
deny
deny
weight of 0 is 0.779637
weight of 1 is -4.849346
weight of 2 is -2.555556
weight of 3 is -1.000000
used!
weight of 0 is 1.305418
weight of 1 is -3.708470
weight of 2 is -2.555556
weight of 3 is 0.000000
used!
weight of 0 is 0.811905
weight of 1 is -3.725322
weight of 2 is -2.555556
weight of 3 is -1.000000
not used!
deny
deny
weight of 0 is 1.337686
weight of 1 is -2.584448
weight of 2 is -2.377778
weight of 3 is 0.000000
used!
weight of 0 is 1.863467
weight of 1 is -1.443574
weight of 2 is -2.200000
weight of 3 is 1.000000
used!
accept
accept
weight of 0 is 2.403264
weight of 1 is -0.302641
weight of 2 is -2.200000
weight of 3 is 2.000000
used!
weight of 0 is 2.943061
weight of 1 is 0.838291
weight of 2 is -2.200000
weight of 3 is 3.000000
used!
accept
accept
weight of 0 is 3.468843
weight of 1 is 0.838313
weight of 2 is -1.844444
weight of 3 is 4.000000
used!
weight of 0 is 3.994624
weight of 1 is 0.838334
weight of 2 is -1.488889
weight of 3 is 5.000000
used!
accept
accept
accept
accept
weight of 0 is 3.501111
weight of 1 is 0.838289
weight of 2 is -1.488889
weight of 3 is 4.000000
not used!
accept
accept
accept
accept
accept
accept
accept
accept
accept
accept
accept
accept
accept
accept
accept
accept
accept
accept
accept
accept
accept
accept
accept
accept
accept
accept
weight of 0 is 2.961233
weight of 1 is 0.838233
weight of 2 is -1.488889
weight of 3 is 3.000000
not used!
weight of 0 is 2.421355
weight of 1 is 0.838195
weight of 2 is -1.488889
weight of 3 is 2.000000
not used!
accept
accept
accept
accept
weight of 0 is 1.927842
weight of 1 is -2.956629
weight of 2 is -1.488889
weight of 3 is 1.000000
not used!
accept
accept
weight of 0 is 1.434329
weight of 1 is -2.960011
weight of 2 is -1.488889
weight of 3 is 0.000000
not used!
accept
accept
deny
deny
weight of 0 is 0.940816
weight of 1 is -2.960015
weight of 2 is -1.488889
weight of 3 is -1.000000
not used!
deny
deny
deny
deny
weight of 0 is 0.447304
weight of 1 is -2.960022
weight of 2 is -1.488889
weight of 3 is -2.000000
not used!
deny
deny
deny
deny
weight of 0 is 0.973095
weight of 1 is -1.819599
weight of 2 is -1.311111
weight of 3 is -1.000000
used!
weight of 0 is 1.498887
weight of 1 is -0.679176
weight of 2 is -1.133333
weight of 3 is 0.000000
used!
accept
accept
weight of 0 is 2.024678
weight of 1 is 0.461245
weight of 2 is -0.777778
weight of 3 is 1.000000
used!
weight of 0 is 2.550470
weight of 1 is 1.601666
weight of 2 is -0.422222
weight of 3 is 2.000000
used!
accept
accept
weight of 0 is 3.090272
weight of 1 is 2.742145
weight of 2 is -0.422222
weight of 3 is 3.000000
used!
weight of 0 is 3.630075
weight of 1 is 3.882625
weight of 2 is -0.422222
weight of 3 is 4.000000
used!
accept
accept
accept
accept
weight of 0 is 3.136562
weight of 1 is 3.882333
weight of 2 is -0.422222
weight of 3 is 3.000000
not used!
accept
accept
accept
accept
accept
accept
weight of 0 is 2.643049
weight of 1 is 3.882329
weight of 2 is -0.422222
weight of 3 is 2.000000
not used!
accept
accept
accept
accept
accept
accept
accept
accept
weight of 0 is 2.149536
weight of 1 is 3.882272
weight of 2 is -0.422222
weight of 3 is 1.000000
not used!
accept
accept
accept
accept
weight of 0 is 1.656023
weight of 1 is 3.882263
weight of 2 is -0.422222
weight of 3 is 0.000000
not used!
accept
accept
accept
accept
accept
accept
accept
accept
accept
accept
accept
accept
accept
accept
accept
accept
accept
accept
accept
accept
accept
accept
accept
accept
accept
accept
accept
accept
accept
accept
accept
accept
accept
accept
accept
accept
accept
accept
accept
accept
accept
accept
accept
accept
accept
accept
accept
accept
accept
accept
accept
accept
accept
accept
accept
accept
accept
accept
accept
accept
accept
accept
accept
accept
accept
accept
accept
accept
accept
accept
accept
accept
accept
accept
accept
accept
accept
accept
weight of 0 is 1.130244
weight of 1 is 2.741351
weight of 2 is -0.600000
weight of 3 is -1.000000
not used!
accept
accept
accept
accept
accept
accept
accept
accept
deny
deny
deny
deny
deny
deny
weight of 0 is 1.656062
weight of 1 is 2.741408
weight of 2 is -0.244444
weight of 3 is 0.000000
used!
weight of 0 is 2.181880
weight of 1 is 2.741464
weight of 2 is 0.111111
weight of 3 is 1.000000
used!
accept
accept
accept
accept
weight of 0 is 2.707698
weight of 1 is 2.741478
weight of 2 is 0.111111
weight of 3 is 2.000000
used!
weight of 0 is 3.233516
weight of 1 is 2.741492
weight of 2 is 0.111111
weight of 3 is 3.000000
used!
weight of 0 is 2.693718
weight of 1 is 1.600712
weight of 2 is 0.111111
weight of 3 is 2.000000
not used!
accept
accept
accept
accept
accept
accept
accept
accept
accept
accept
accept
accept
accept
accept
accept
accept
accept
accept
accept
accept
weight of 0 is 2.153918
weight of 1 is 0.460113
weight of 2 is -0.422222
weight of 3 is 1.000000
not used!
accept
accept
accept
accept
accept
accept
accept
accept
accept
accept
accept
accept
accept
accept
accept
accept
accept
accept
accept
accept
accept
accept
accept
accept
accept
accept
accept
accept
accept
accept
accept
accept
accept
accept
accept
accept
accept
accept
accept
accept
accept
accept
accept
accept
accept
accept
accept
accept
accept
accept
accept
accept
accept
accept
accept
accept
accept
accept
accept
accept
accept
accept
accept
accept
accept
accept
accept
accept
accept
accept
accept
accept
accept
accept
accept
accept
accept
accept
accept
accept
accept
accept
accept
accept
accept
accept
accept
accept
accept
accept
accept
accept
accept
accept
accept
accept
weight of 0 is 1.628109
weight of 1 is 0.460056
weight of 2 is -0.600000
weight of 3 is 0.000000
not used!
accept
accept
accept
accept
accept
accept
accept
accept
accept
accept
weight of 0 is 1.088297
weight of 1 is -0.679387
weight of 2 is -0.600000
weight of 3 is -1.000000
not used!
weight of 0 is 0.548484
weight of 1 is -1.818834
weight of 2 is -0.777778
weight of 3 is -2.000000
not used!
deny
deny
deny
deny
deny
deny
deny
deny
weight of 0 is 1.074332
weight of 1 is -1.818777
weight of 2 is -0.600000
weight of 3 is -1.000000
used!
weight of 0 is 1.600180
weight of 1 is -1.818721
weight of 2 is -0.422222
weight of 3 is 0.000000
used!
deny
deny
deny
deny
weight of 0 is 2.126029
weight of 1 is -0.680592
weight of 2 is -0.066667
weight of 3 is 1.000000
used!
weight of 0 is 2.651877
weight of 1 is 0.457537
weight of 2 is 0.288889
weight of 3 is 2.000000
used!
accept
accept
weight of 0 is 3.177726
weight of 1 is 0.457551
weight of 2 is 0.288889
weight of 3 is 3.000000
used!
weight of 0 is 3.703575
weight of 1 is 0.457565
weight of 2 is 0.288889
weight of 3 is 4.000000
used!
accept
accept
weight of 0 is 4.243406
weight of 1 is 1.595715
weight of 2 is 0.288889
weight of 3 is 5.000000
used!
weight of 0 is 4.783237
weight of 1 is 2.733865
weight of 2 is 0.288889
weight of 3 is 6.000000
used!
accept
accept
accept
accept
accept
accept
accept
accept
accept
accept
accept
accept
accept
accept
accept
accept
accept
accept
accept
accept
accept
accept
accept
accept
weight of 0 is 4.257413
weight of 1 is 2.733808
weight of 2 is -0.066667
weight of 3 is 5.000000
not used!
accept
accept
accept
accept
accept
accept
accept
accept
accept
accept
accept
accept
accept
accept
accept
accept
accept
accept
accept
accept
accept
accept
accept
accept
accept
accept
accept
accept
accept
accept
weight of 0 is 3.717589
weight of 1 is 1.594923
weight of 2 is -0.066667
weight of 3 is 4.000000
not used!
accept
accept
accept
accept
accept
accept
accept
accept
accept
accept
accept
accept
accept
accept
accept
accept
accept
accept
accept
accept
accept
accept
accept
accept
accept
accept
weight of 0 is 3.191750
weight of 1 is 1.594867
weight of 2 is -0.066667
weight of 3 is 3.000000
not used!
accept
accept
accept
accept
accept
accept
weight of 0 is 2.651922
weight of 1 is 0.456219
weight of 2 is -0.777778
weight of 3 is 2.000000
not used!
accept
accept
accept
accept
accept
accept
accept
accept
accept
accept
accept
accept
accept
accept
accept
accept
accept
accept
accept
accept
accept
accept
accept
accept
accept
accept
accept
accept
accept
accept
accept
accept
accept
accept
accept
accept
accept
accept
accept
accept
accept
accept
accept
accept
accept
accept
accept
accept
accept
accept
accept
accept
accept
accept
accept
accept
accept
accept
accept
accept
accept
accept
accept
accept
accept
accept
accept
accept
accept
accept
weight of 0 is 2.112088
weight of 1 is -0.681834
weight of 2 is -0.777778
weight of 3 is 1.000000
not used!
accept
accept
accept
accept
accept
accept
accept
accept
accept
accept
accept
accept
accept
accept
accept
accept
accept
accept
accept
accept
weight of 0 is 1.572252
weight of 1 is -1.819782
weight of 2 is -1.311111
weight of 3 is 0.000000
not used!
accept
accept
deny
deny
accept
accept
accept
accept
deny
deny
deny
deny
deny
deny
deny
deny
accept
accept
accept
accept
deny
deny
deny
deny
weight of 0 is 1.032413
weight of 1 is -2.957751
weight of 2 is -2.022222
weight of 3 is -1.000000
not used!
deny
deny
deny
deny
deny
deny
deny
deny
deny
deny
deny
deny
deny
deny
deny
deny
deny
deny
weight of 0 is 0.492563
weight of 1 is -4.096315
weight of 2 is -2.200000
weight of 3 is -2.000000
not used!
deny
deny
deny
deny
weight of 0 is -0.047294
weight of 1 is -5.235479
weight of 2 is -2.377778
weight of 3 is -3.000000
not used!
deny
deny
deny
deny
deny
deny
deny
deny
deny
deny
deny
deny
deny
deny
deny
deny
deny
deny
deny
deny
deny
deny
deny
deny
deny
deny
deny
deny
deny
deny
deny
deny
deny
deny
deny
deny
weight of 0 is -0.587153
weight of 1 is -6.374491
weight of 2 is -2.377778
weight of 3 is -4.000000
not used!
deny
deny
weight of 0 is -1.127013
weight of 1 is -6.374550
weight of 2 is -2.555556
weight of 3 is -5.000000
not used!
deny
deny
deny
deny
weight of 0 is -1.666874
weight of 1 is -7.513683
weight of 2 is -3.266667
weight of 3 is -6.000000
not used!
deny
deny
weight of 0 is -2.206736
weight of 1 is -7.513733
weight of 2 is -3.444444
weight of 3 is -7.000000
not used!
deny
deny
weight of 0 is -2.746599
weight of 1 is -7.513852
weight of 2 is -4.155556
weight of 3 is -8.000000
not used!
deny
deny
weight of 0 is -3.286463
weight of 1 is -7.513902
weight of 2 is -4.333333
weight of 3 is -9.000000
not used!
deny
deny
deny
deny
weight of 0 is -2.761016
weight of 1 is -4.971414
weight of 2 is -4.333333
weight of 3 is -8.000000
used!
weight of 0 is -2.235569
weight of 1 is -2.428927
weight of 2 is -4.333333
weight of 3 is -7.000000
used!
deny
deny
deny
deny
weight of 0 is -2.775434
weight of 1 is -3.568343
weight of 2 is -5.044444
weight of 3 is -8.000000
not used!
deny
deny
deny
deny
deny
deny
weight of 0 is -3.301182
weight of 1 is -4.717440
weight of 2 is -6.377778
weight of 3 is -9.000000
not used!
deny
deny
deny
deny
weight of 0 is -3.826683
weight of 1 is -7.321196
weight of 2 is -7.000000
weight of 3 is -10.000000
not used!
deny
deny
deny
deny
deny
deny
deny
deny
weight of 0 is -4.320196
weight of 1 is -9.924896
weight of 2 is -7.000000
weight of 3 is -11.000000
not used!
deny
deny
deny
deny
deny
deny
weight of 0 is -4.845919
weight of 1 is -12.546784
weight of 2 is -7.466667
weight of 3 is -12.000000
not used!
deny
deny
deny
deny
deny
deny
deny
deny
weight of 0 is -4.351708
weight of 1 is -9.983556
weight of 2 is -6.400000
weight of 3 is -11.000000
used!
weight of 0 is -3.857496
weight of 1 is -7.420327
weight of 2 is -5.333333
weight of 3 is -10.000000
used!
deny
deny
deny
deny
deny
deny
deny
deny
deny
deny
deny
deny
weight of 0 is -3.331797
weight of 1 is -7.405455
weight of 2 is -5.266667
weight of 3 is -9.000000
used!
weight of 0 is -2.806098
weight of 1 is -7.390583
weight of 2 is -5.200000
weight of 3 is -8.000000
used!
deny
deny
deny
deny
deny
deny
deny
deny
deny
deny
deny
deny
deny
deny
deny
deny
deny
deny
deny
deny
deny
deny
weight of 0 is -3.300303
weight of 1 is -7.446945
weight of 2 is -6.266667
weight of 3 is -9.000000
not used!
deny
deny
deny
deny
deny
deny
deny
deny
deny
deny
deny
deny
deny
deny
deny
deny
deny
deny
deny
deny
weight of 0 is -2.774601
weight of 1 is -7.431212
weight of 2 is -5.400000
weight of 3 is -8.000000
used!
weight of 0 is -2.248899
weight of 1 is -7.415479
weight of 2 is -4.533333
weight of 3 is -7.000000
used!
deny
deny
weight of 0 is -2.774348
weight of 1 is -8.989602
weight of 2 is -4.533333
weight of 3 is -8.000000
not used!
deny
deny
deny
deny
weight of 0 is -3.299798
weight of 1 is -11.589265
weight of 2 is -5.866667
weight of 3 is -9.000000
not used!
weight of 0 is -3.825266
weight of 1 is -11.590682
weight of 2 is -6.400000
weight of 3 is -10.000000
not used!
deny
deny
deny
deny
deny
deny
deny
deny
weight of 0 is -3.299564
weight of 1 is -11.590679
weight of 2 is -6.400000
weight of 3 is -9.000000
used!
weight of 0 is -2.773861
weight of 1 is -11.590675
weight of 2 is -6.400000
weight of 3 is -8.000000
used!
deny
deny
weight of 0 is -2.279658
weight of 1 is -9.026399
weight of 2 is -6.400000
weight of 3 is -7.000000
used!
weight of 0 is -1.785454
weight of 1 is -6.462123
weight of 2 is -6.400000
weight of 3 is -6.000000
used!
weight of 0 is -2.278967
weight of 1 is -6.462205
weight of 2 is -7.288889
weight of 3 is -7.000000
not used!
deny
deny
deny
deny
deny
deny
deny
deny
deny
deny
weight of 0 is -2.772480
weight of 1 is -6.462234
weight of 2 is -7.466667
weight of 3 is -8.000000
not used!
weight of 0 is -3.265992
weight of 1 is -6.462814
weight of 2 is -7.466667
weight of 3 is -9.000000
not used!
deny
deny
weight of 0 is -2.740123
weight of 1 is -6.428940
weight of 2 is -7.288889
weight of 3 is -8.000000
used!
weight of 0 is -2.214253
weight of 1 is -6.395067
weight of 2 is -7.111111
weight of 3 is -7.000000
used!
deny
deny
deny
deny
deny
deny
weight of 0 is -1.688550
weight of 1 is -6.386235
weight of 2 is -6.688889
weight of 3 is -6.000000
used!
weight of 0 is -1.162847
weight of 1 is -6.377403
weight of 2 is -6.266667
weight of 3 is -5.000000
used!
weight of 0 is -1.656359
weight of 1 is -6.377778
weight of 2 is -6.266667
weight of 3 is -6.000000
not used!
deny
deny
deny
deny
weight of 0 is -2.149872
weight of 1 is -6.378379
weight of 2 is -6.266667
weight of 3 is -7.000000
not used!
deny
deny
deny
deny
deny
deny
deny
deny
deny
deny
deny
deny
weight of 0 is -2.675339
weight of 1 is -8.981358
weight of 2 is -6.355556
weight of 3 is -8.000000
not used!
weight of 0 is -3.168852
weight of 1 is -11.582106
weight of 2 is -7.422222
weight of 3 is -9.000000
not used!
deny
deny
deny
deny
weight of 0 is -3.662365
weight of 1 is -11.582149
weight of 2 is -7.422222
weight of 3 is -10.000000
not used!
deny
deny
deny
deny
deny
deny
deny
deny
deny
deny
deny
deny
weight of 0 is -3.136497
weight of 1 is -11.548377
weight of 2 is -7.422222
weight of 3 is -9.000000
used!
weight of 0 is -2.610629
weight of 1 is -11.514606
weight of 2 is -7.422222
weight of 3 is -8.000000
used!
deny
deny
deny
deny
weight of 0 is -3.136497
weight of 1 is -12.651913
weight of 2 is -7.600000
weight of 3 is -9.000000
not used!
weight of 0 is -3.676335
weight of 1 is -13.789302
weight of 2 is -8.311111
weight of 3 is -10.000000
not used!
deny
deny
deny
deny
weight of 0 is -4.216174
weight of 1 is -14.926721
weight of 2 is -8.311111
weight of 3 is -11.000000
not used!
deny
deny
deny
deny
weight of 0 is -4.741928
weight of 1 is -16.073398
weight of 2 is -8.666667
weight of 3 is -12.000000
not used!
deny
deny
deny
deny
weight of 0 is -5.267510
weight of 1 is -16.087415
weight of 2 is -8.933333
weight of 3 is -13.000000
not used!
weight of 0 is -5.793198
weight of 1 is -16.093930
weight of 2 is -10.311111
weight of 3 is -14.000000
not used!
deny
deny
deny
deny
deny
deny
weight of 0 is -6.287414
weight of 1 is -18.656254
weight of 2 is -11.555556
weight of 3 is -15.000000
not used!
deny
deny
deny
deny
weight of 0 is -6.812865
weight of 1 is -21.198741
weight of 2 is -11.733333
weight of 3 is -16.000000
not used!
deny
deny
weight of 0 is -7.338322
weight of 1 is -21.199599
weight of 2 is -12.888889
weight of 3 is -17.000000
not used!
deny
deny
weight of 0 is -7.863803
weight of 1 is -21.201614
weight of 2 is -12.977778
weight of 3 is -18.000000
not used!
deny
deny
deny
deny
deny
deny
weight of 0 is -8.389406
weight of 1 is -21.214100
weight of 2 is -13.066667
weight of 3 is -19.000000
not used!
deny
deny
weight of 0 is -8.915095
weight of 1 is -21.219022
weight of 2 is -13.155556
weight of 3 is -20.000000
not used!
deny
deny
deny
deny
deny
deny
weight of 0 is -8.420880
weight of 1 is -18.655037
weight of 2 is -13.155556
weight of 3 is -19.000000
used!
weight of 0 is -7.926665
weight of 1 is -16.091052
weight of 2 is -13.155556
weight of 3 is -18.000000
used!
deny
deny
deny
deny
deny
deny
weight of 0 is -8.452423
weight of 1 is -16.115504
weight of 2 is -13.733333
weight of 3 is -19.000000
not used!
deny
deny
weight of 0 is -7.926553
weight of 1 is -16.080156
weight of 2 is -13.555556
weight of 3 is -18.000000
used!
weight of 0 is -7.400682
weight of 1 is -16.044807
weight of 2 is -13.377778
weight of 3 is -17.000000
used!
weight of 0 is -7.926304
weight of 1 is -16.055898
weight of 2 is -13.466667
weight of 3 is -18.000000
not used!
deny
deny
deny
deny
deny
deny
deny
deny
deny
deny
deny
deny
deny
deny
deny
deny
deny
deny
deny
deny
deny
deny
deny
deny
deny
deny
deny
deny
deny
deny
deny
deny
deny
deny
deny
deny
deny
deny
weight of 0 is -7.400435
weight of 1 is -13.408609
weight of 2 is -13.466667
weight of 3 is -17.000000
used!
weight of 0 is -6.874566
weight of 1 is -10.761319
weight of 2 is -13.466667
weight of 3 is -16.000000
used!
deny
deny
deny
deny
deny
deny
weight of 0 is -6.348849
weight of 1 is -10.748533
weight of 2 is -13.155556
weight of 3 is -15.000000
used!
weight of 0 is -5.823131
weight of 1 is -10.735748
weight of 2 is -12.844444
weight of 3 is -14.000000
used!
deny
deny
deny
deny
weight of 0 is -5.328922
weight of 1 is -8.181353
weight of 2 is -11.600000
weight of 3 is -13.000000
used!
weight of 0 is -4.834713
weight of 1 is -5.626958
weight of 2 is -10.355556
weight of 3 is -12.000000
used!
deny
deny
deny
deny
deny
deny
deny
deny
deny
deny
deny
deny
deny
deny
deny
deny
deny
deny
deny
deny
deny
deny
deny
deny
deny
deny
deny
deny
deny
deny
deny
deny
deny
deny
deny
deny
deny
deny
deny
deny
deny
deny
deny
deny
deny
deny
deny
deny
deny
deny
deny
deny
deny
deny
deny
deny
deny
deny
deny
deny
deny
deny
weight of 0 is -4.340503
weight of 1 is -3.061663
weight of 2 is -9.288889
weight of 3 is -11.000000
used!
weight of 0 is -3.846294
weight of 1 is -0.496368
weight of 2 is -8.222222
weight of 3 is -10.000000
used!
deny
deny
weight of 0 is -3.320841
weight of 1 is 0.148449
weight of 2 is -8.222222
weight of 3 is -9.000000
used!
weight of 0 is -2.795389
weight of 1 is 0.793266
weight of 2 is -8.222222
weight of 3 is -8.000000
used!
deny
deny
deny
deny
deny
deny
deny
deny
deny
deny
deny
deny
deny
deny
deny
deny
deny
deny
deny
deny
deny
deny
deny
deny
deny
deny
deny
deny
weight of 0 is -2.269520
weight of 1 is 0.830014
weight of 2 is -8.222222
weight of 3 is -7.000000
used!
weight of 0 is -1.743650
weight of 1 is 0.866762
weight of 2 is -8.222222
weight of 3 is -6.000000
used!
deny
deny
deny
deny
deny
deny
deny
deny
deny
deny
deny
deny
deny
deny
deny
deny
weight of 0 is -1.217922
weight of 1 is 0.870304
weight of 2 is -7.755556
weight of 3 is -5.000000
used!
weight of 0 is -0.692194
weight of 1 is 0.873845
weight of 2 is -7.288889
weight of 3 is -4.000000
used!
deny
deny
deny
deny
deny
deny
deny
deny
deny
deny
deny
deny
deny
deny
deny
deny
deny
deny
deny
deny
deny
deny
deny
deny
deny
deny
deny
deny
weight of 0 is -0.166322
weight of 1 is 0.906791
weight of 2 is -7.111111
weight of 3 is -3.000000
used!
weight of 0 is 0.359550
weight of 1 is 0.939737
weight of 2 is -6.933333
weight of 3 is -2.000000
used!
deny
deny
deny
deny
deny
deny
deny
deny
deny
deny
deny
deny
deny
deny
deny
deny
weight of 0 is 0.885027
weight of 1 is 1.587173
weight of 2 is -6.044444
weight of 3 is -1.000000
used!
weight of 0 is 1.410505
weight of 1 is 2.234608
weight of 2 is -5.155556
weight of 3 is 0.000000
used!
deny
deny
accept
accept
deny
deny
accept
accept
accept
accept
accept
accept
deny
deny
deny
deny
deny
deny
deny
deny
accept
accept
deny
deny
accept
accept
accept
accept
weight of 0 is 1.936375
weight of 1 is 2.258600
weight of 2 is -5.155556
weight of 3 is 1.000000
used!
weight of 0 is 2.462246
weight of 1 is 2.282591
weight of 2 is -5.155556
weight of 3 is 2.000000
used!
accept
accept
weight of 0 is 2.987982
weight of 1 is 2.296684
weight of 2 is -4.133333
weight of 3 is 3.000000
used!
weight of 0 is 3.513719
weight of 1 is 2.310778
weight of 2 is -3.111111
weight of 3 is 4.000000
used!
accept
accept
accept
accept
accept
accept
accept
accept
accept
accept
accept
accept
accept
accept
accept
accept
accept
accept
accept
accept
accept
accept
accept
accept
accept
accept
accept
accept
accept
accept
accept
accept
accept
accept
accept
accept
accept
accept
accept
accept
accept
accept
accept
accept
accept
accept
accept
accept
accept
accept
accept
accept
accept
accept
accept
accept
accept
accept
accept
accept
accept
accept
accept
accept
accept
accept
accept
accept
accept
accept
accept
accept
accept
accept
accept
accept
accept
accept
accept
accept
accept
accept
accept
accept
accept
accept
accept
accept
accept
accept
accept
accept
accept
accept
accept
accept
accept
accept
accept
accept
accept
accept
accept
accept
accept
accept
accept
accept
accept
accept
accept
accept
accept
accept
accept
accept
accept
accept
accept
accept
accept
accept
accept
accept
accept
accept
accept
accept
accept
accept
accept
accept
accept
accept
accept
accept
accept
accept
accept
accept
accept
accept
accept
accept
accept
accept
accept
accept
accept
accept
accept
accept
accept
accept
accept
accept
accept
accept
accept
accept
accept
accept
accept
accept
accept
accept
accept
accept
accept
accept
accept
accept
accept
accept
accept
accept
accept
accept
accept
accept
accept
accept
accept
accept
accept
accept
accept
accept
accept
accept
accept
accept
accept
accept
accept
accept
accept
accept
accept
accept
accept
accept
accept
accept
accept
accept
weight of 0 is 2.988071
weight of 1 is 2.301702
weight of 2 is -3.200000
weight of 3 is 3.000000
not used!
accept
accept
weight of 0 is 2.462335
weight of 1 is 2.301697
weight of 2 is -3.200000
weight of 3 is 2.000000
not used!
weight of 0 is 1.968131
weight of 1 is -0.265442
weight of 2 is -4.088889
weight of 3 is 1.000000
not used!
weight of 0 is 1.442669
weight of 1 is -2.810096
weight of 2 is -4.355556
weight of 3 is 0.000000
not used!
deny
deny
accept
accept
deny
deny
weight of 0 is 0.917216
weight of 1 is -2.833328
weight of 2 is -4.533333
weight of 3 is -1.000000
not used!
deny
deny
weight of 0 is 0.391742
weight of 1 is -2.833329
weight of 2 is -4.533333
weight of 3 is -2.000000
not used!
deny
deny
weight of 0 is -0.133995
weight of 1 is -2.846407
weight of 2 is -4.555556
weight of 3 is -3.000000
not used!
deny
deny
weight of 0 is -0.628209
weight of 1 is -5.412877
weight of 2 is -4.911111
weight of 3 is -4.000000
not used!
deny
deny
weight of 0 is -0.057292
weight of 1 is -5.248822
weight of 2 is -4.555556
weight of 3 is -3.000000
used!
weight of 0 is 0.513626
weight of 1 is -5.084766
weight of 2 is -4.200000
weight of 3 is -2.000000
used!
weight of 0 is -0.011858
weight of 1 is -7.632715
weight of 2 is -4.466667
weight of 3 is -3.000000
not used!
weight of 0 is -0.537597
weight of 1 is -7.651387
weight of 2 is -4.555556
weight of 3 is -4.000000
not used!
deny
deny
weight of 0 is -1.063043
weight of 1 is -7.675809
weight of 2 is -4.733333
weight of 3 is -5.000000
not used!
deny
deny
weight of 0 is -1.588600
weight of 1 is -7.687506
weight of 2 is -5.711111
weight of 3 is -6.000000
not used!
deny
deny
weight of 0 is -2.114340
weight of 1 is -7.700364
weight of 2 is -5.888889
weight of 3 is -7.000000
not used!
weight of 0 is -2.606353
weight of 1 is -10.445916
weight of 2 is -6.244444
weight of 3 is -8.000000
not used!
deny
deny
weight of 0 is -3.098381
weight of 1 is -10.446660
weight of 2 is -7.400000
weight of 3 is -9.000000
not used!
deny
deny
deny
deny
deny
deny
deny
deny
weight of 0 is -3.624009
weight of 1 is -13.184401
weight of 2 is -8.733333
weight of 3 is -10.000000
not used!
deny
deny
weight of 0 is -4.118226
weight of 1 is -15.743864
weight of 2 is -8.911111
weight of 3 is -11.000000
not used!
deny
deny
weight of 0 is -4.643686
weight of 1 is -18.287393
weight of 2 is -10.066667
weight of 3 is -12.000000
not used!
weight of 0 is -5.169175
weight of 1 is -18.289767
weight of 2 is -10.333333
weight of 3 is -13.000000
not used!
warn: ignoring syscall mprotect(...)
weight of 0 is -5.694923
weight of 1 is -18.313008
weight of 2 is -10.733333
weight of 3 is -14.000000
not used!
deny
deny
weight of 0 is -6.220416
weight of 1 is -18.333632
weight of 2 is -11.533333
weight of 3 is -15.000000
not used!
weight of 0 is -6.745866
weight of 1 is -18.339436
weight of 2 is -12.422222
weight of 3 is -16.000000
not used!
weight of 0 is -7.271333
weight of 1 is -18.340797
weight of 2 is -12.511111
weight of 3 is -17.000000
not used!
deny
deny
weight of 0 is -7.796919
weight of 1 is -18.352785
weight of 2 is -12.777778
weight of 3 is -18.000000
not used!
deny
deny
weight of 0 is -8.322660
weight of 1 is -18.363307
weight of 2 is -13.088889
weight of 3 is -19.000000
not used!
weight of 0 is -8.816874
weight of 1 is -20.930163
weight of 2 is -14.333333
weight of 3 is -20.000000
not used!
weight of 0 is -9.342624
weight of 1 is -23.499823
weight of 2 is -15.000000
weight of 3 is -21.000000
not used!
weight of 0 is -9.868154
weight of 1 is -23.517721
weight of 2 is -16.155556
weight of 3 is -22.000000
not used!
deny
deny
weight of 0 is -10.393897
weight of 1 is -23.532959
weight of 2 is -17.400000
weight of 3 is -23.000000
not used!
weight of 0 is -10.919351
weight of 1 is -23.556742
weight of 2 is -18.733333
weight of 3 is -24.000000
not used!
weight of 0 is -11.444823
weight of 1 is -23.558367
weight of 2 is -19.355556
weight of 3 is -25.000000
not used!
weight of 0 is -11.970582
weight of 1 is -23.583904
weight of 2 is -20.377778
weight of 3 is -26.000000
not used!
deny
deny
weight of 0 is -12.496218
weight of 1 is -23.593898
weight of 2 is -21.533333
weight of 3 is -27.000000
not used!
weight of 0 is -13.021962
weight of 1 is -23.600598
weight of 2 is -22.222222
weight of 3 is -28.000000
not used!
deny
deny
weight of 0 is -13.516173
weight of 1 is -26.167878
weight of 2 is -23.111111
weight of 3 is -29.000000
not used!
weight of 0 is -14.041664
weight of 1 is -28.714349
weight of 2 is -24.444444
weight of 3 is -30.000000
not used!
deny
deny
deny
deny
weight of 0 is -14.567410
weight of 1 is -28.726757
weight of 2 is -25.422222
weight of 3 is -31.000000
not used!
deny
deny
weight of 0 is -15.092990
weight of 1 is -28.740883
weight of 2 is -26.577778
weight of 3 is -32.000000
not used!
weight of 0 is -15.618741
weight of 1 is -28.752625
weight of 2 is -27.711111
weight of 3 is -33.000000
not used!
deny
deny
weight of 0 is -16.112966
weight of 1 is -31.318889
weight of 2 is -27.711111
weight of 3 is -34.000000
not used!
weight of 0 is -16.607239
weight of 1 is -31.322747
weight of 2 is -28.244444
weight of 3 is -35.000000
not used!
weight of 0 is -17.132720
weight of 1 is -33.863061
weight of 2 is -29.577778
weight of 3 is -36.000000
not used!
weight of 0 is -17.658469
weight of 1 is -33.887094
weight of 2 is -29.800000
weight of 3 is -37.000000
not used!
deny
deny
weight of 0 is -18.183984
weight of 1 is -33.906090
weight of 2 is -29.888889
weight of 3 is -38.000000
not used!
deny
deny
weight of 0 is -18.709739
weight of 1 is -33.923492
weight of 2 is -30.355556
weight of 3 is -39.000000
not used!
weight of 0 is -19.203945
weight of 1 is -36.492036
weight of 2 is -30.533333
weight of 3 is -40.000000
not used!
weight of 0 is -19.729395
weight of 1 is -39.035125
weight of 2 is -31.066667
weight of 3 is -41.000000
not used!
weight of 0 is -20.254846
weight of 1 is -39.035739
weight of 2 is -31.155556
weight of 3 is -42.000000
not used!
weight of 0 is -20.780317
weight of 1 is -39.037256
weight of 2 is -32.311111
weight of 3 is -43.000000
not used!
deny
deny
weight of 0 is -21.306076
weight of 1 is -39.063060
weight of 2 is -32.711111
weight of 3 is -44.000000
not used!
deny
deny
deny
deny
weight of 0 is -21.831723
weight of 1 is -39.072316
weight of 2 is -33.511111
weight of 3 is -45.000000
not used!
weight of 0 is -22.357184
weight of 1 is -39.089603
weight of 2 is -34.133333
weight of 3 is -46.000000
not used!
deny
deny
weight of 0 is -22.882676
weight of 1 is -39.092113
weight of 2 is -34.222222
weight of 3 is -47.000000
not used!
weight of 0 is -23.408336
weight of 1 is -39.108017
weight of 2 is -35.022222
weight of 3 is -48.000000
not used!
deny
deny
weight of 0 is -23.934042
weight of 1 is -39.109741
weight of 2 is -35.466667
weight of 3 is -49.000000
not used!
deny
deny
deny
deny
weight of 0 is -23.416517
weight of 1 is -38.469076
weight of 2 is -35.288889
weight of 3 is -48.000000
used!
weight of 0 is -22.898992
weight of 1 is -37.828411
weight of 2 is -35.111111
weight of 3 is -47.000000
used!
deny
deny
deny
deny
weight of 0 is -23.424578
weight of 1 is -37.840250
weight of 2 is -36.444444
weight of 3 is -48.000000
not used!
deny
deny
weight of 0 is -22.907078
weight of 1 is -37.838605
weight of 2 is -35.822222
weight of 3 is -47.000000
used!
weight of 0 is -22.389579
weight of 1 is -37.836960
weight of 2 is -35.200000
weight of 3 is -46.000000
used!
deny
deny
weight of 0 is -21.872054
weight of 1 is -37.196487
weight of 2 is -35.022222
weight of 3 is -45.000000
used!
weight of 0 is -21.354529
weight of 1 is -36.556015
weight of 2 is -34.844444
weight of 3 is -44.000000
used!
deny
deny
weight of 0 is -21.880116
weight of 1 is -36.556163
weight of 2 is -36.000000
weight of 3 is -45.000000
not used!
deny
deny
weight of 0 is -21.362577
weight of 1 is -36.554990
weight of 2 is -34.755556
weight of 3 is -44.000000
used!
weight of 0 is -20.845037
weight of 1 is -36.553817
weight of 2 is -33.511111
weight of 3 is -43.000000
used!
weight of 0 is -21.370796
weight of 1 is -36.565633
weight of 2 is -34.644444
weight of 3 is -44.000000
not used!
deny
deny
weight of 0 is -21.896278
weight of 1 is -36.588268
weight of 2 is -34.644444
weight of 3 is -45.000000
not used!
weight of 0 is -22.422027
weight of 1 is -36.598439
weight of 2 is -35.755556
weight of 3 is -46.000000
not used!
deny
deny
weight of 0 is -22.947538
weight of 1 is -36.617719
weight of 2 is -36.555556
weight of 3 is -47.000000
not used!
deny
deny
deny
deny
weight of 0 is -23.473297
weight of 1 is -36.635774
weight of 2 is -37.400000
weight of 3 is -48.000000
not used!
weight of 0 is -23.967510
weight of 1 is -39.204166
weight of 2 is -38.111111
weight of 3 is -49.000000
not used!
deny
deny
weight of 0 is -23.449987
weight of 1 is -39.203245
weight of 2 is -38.111111
weight of 3 is -48.000000
used!
weight of 0 is -22.932463
weight of 1 is -39.202325
weight of 2 is -38.111111
weight of 3 is -47.000000
used!
weight of 0 is -23.457914
weight of 1 is -41.745504
weight of 2 is -38.911111
weight of 3 is -48.000000
not used!
weight of 0 is -23.983384
weight of 1 is -41.746997
weight of 2 is -39.000000
[...]
accept
accept
accept
accept
accept
accept
accept
accept
accept
accept
accept
accept
accept
accept
accept
accept
accept
accept
accept
accept
accept
accept
accept
accept
accept
accept
accept
accept
accept
accept
accept
accept
accept
accept
accept
accept
accept
accept
accept
accept
accept
accept
accept
accept
accept
accept
accept
accept
accept
accept
accept
accept
accept
accept
accept
accept
accept
accept
accept
accept
accept
accept
accept
accept
accept
accept
accept
accept
accept
accept
accept
accept
accept
accept
accept
accept
weight of 0 is -0.070816
weight of 1 is 0.861426
weight of 2 is -10.111111
weight of 3 is 1.000000
not used!
weight of 0 is -0.107717
weight of 1 is 0.552412
weight of 2 is -10.111111
weight of 3 is 0.000000
not used!
accept
accept
accept
accept
accept
accept
accept
accept
accept
accept
accept
accept
accept
accept
accept
accept
accept
accept
accept
accept
accept
accept
accept
accept
accept
accept
accept
accept
accept
accept
accept
accept
accept
accept
accept
accept
accept
accept
accept
accept
accept
accept
accept
accept
accept
accept
accept
accept
accept
accept
accept
accept
accept
accept
accept
accept
accept
accept
accept
accept
accept
accept
accept
accept
accept
accept
accept
accept
accept
accept
accept
accept
accept
accept
accept
accept
accept
accept
accept
accept
accept
accept
accept
accept
accept
accept
accept
accept
accept
accept
accept
accept
accept
accept
accept
accept
accept
accept
weight of 0 is -0.140836
weight of 1 is 0.243456
weight of 2 is -10.111111
weight of 3 is -1.000000
not used!
deny
deny
weight of 0 is -0.177752
weight of 1 is -0.065558
weight of 2 is -10.111111
weight of 3 is -2.000000
not used!
deny
deny
deny
deny
deny
deny
deny
deny
weight of 0 is -0.140822
weight of 1 is 0.243456
weight of 2 is -10.111111
weight of 3 is -1.000000
used!
weight of 0 is -0.103891
weight of 1 is 0.552469
weight of 2 is -10.111111
weight of 3 is 0.000000
used!
accept
accept
weight of 0 is -0.070757
weight of 1 is 0.861463
weight of 2 is -10.111111
weight of 3 is 1.000000
used!
weight of 0 is -0.037622
weight of 1 is 1.170458
weight of 2 is -10.111111
weight of 3 is 2.000000
used!
accept
accept
weight of 0 is -0.000691
weight of 1 is 1.479471
weight of 2 is -10.111111
weight of 3 is 3.000000
used!
weight of 0 is 0.036240
weight of 1 is 1.788484
weight of 2 is -10.111111
weight of 3 is 4.000000
used!
accept
accept
accept
accept
accept
accept
accept
accept
accept
accept
accept
accept
accept
accept
accept
accept
accept
accept
accept
accept
accept
accept
accept
accept
accept
accept
accept
accept
accept
accept
accept
accept
accept
accept
accept
accept
accept
accept
accept
accept
accept
accept
accept
accept
accept
accept
accept
accept
accept
accept
accept
accept
accept
accept
accept
accept
accept
accept
accept
accept
accept
accept
accept
accept
accept
accept
accept
accept
accept
accept
accept
accept
weight of 0 is 0.003106
weight of 1 is 1.479527
weight of 2 is -10.111111
weight of 3 is 3.000000
not used!
accept
accept
accept
accept
accept
accept
accept
accept
accept
accept
accept
accept
accept
accept
accept
accept
accept
accept
accept
accept
accept
accept
accept
accept
accept
accept
accept
accept
accept
accept
accept
accept
accept
accept
accept
accept
accept
accept
accept
accept
accept
accept
accept
accept
accept
accept
accept
accept
accept
accept
accept
accept
accept
accept
accept
accept
accept
accept
accept
accept
accept
accept
accept
accept
accept
accept
accept
accept
accept
accept
accept
accept
accept
accept
accept
accept
accept
accept
accept
accept
accept
accept
accept
accept
accept
accept
accept
accept
weight of 0 is -0.030043
weight of 1 is 1.170570
weight of 2 is -10.111111
weight of 3 is 2.000000
not used!
weight of 0 is -0.066988
weight of 1 is 0.861557
weight of 2 is -10.111111
weight of 3 is 1.000000
not used!
accept
accept
accept
accept
accept
accept
accept
accept
accept
accept
accept
accept
accept
accept
accept
accept
accept
accept
accept
accept
accept
accept
accept
accept
accept
accept
accept
accept
accept
accept
accept
accept
accept
accept
accept
accept
accept
accept
accept
accept
accept
accept
accept
accept
accept
accept
accept
accept
accept
accept
accept
accept
accept
accept
accept
accept
accept
accept
accept
accept
accept
accept
accept
accept
accept
accept
accept
accept
accept
accept
accept
accept
accept
accept
accept
accept
accept
accept
accept
accept
accept
accept
accept
accept
accept
accept
accept
accept
accept
accept
weight of 0 is -0.100152
weight of 1 is 0.552600
weight of 2 is -10.111111
weight of 3 is 0.000000
not used!
accept
accept
weight of 0 is -0.137112
weight of 1 is 0.243587
weight of 2 is -10.111111
weight of 3 is -1.000000
not used!
deny
deny
deny
deny
deny
deny
deny
deny
deny
deny
weight of 0 is -0.103934
weight of 1 is 0.552544
weight of 2 is -10.111111
weight of 3 is 0.000000
used!
weight of 0 is -0.070755
weight of 1 is 0.861501
weight of 2 is -10.111111
weight of 3 is 1.000000
used!
accept
accept
weight of 0 is -0.033780
weight of 1 is 1.170514
weight of 2 is -10.111111
weight of 3 is 2.000000
used!
weight of 0 is 0.003195
weight of 1 is 1.479527
weight of 2 is -10.111111
weight of 3 is 3.000000
used!
accept
accept
weight of 0 is 0.036373
weight of 1 is 1.788522
weight of 2 is -10.111111
weight of 3 is 4.000000
used!
weight of 0 is 0.069552
weight of 1 is 2.097516
weight of 2 is -10.111111
weight of 3 is 5.000000
used!
accept
accept
accept
accept
accept
accept
accept
accept
accept
accept
accept
accept
accept
accept
accept
accept
accept
accept
accept
accept
accept
accept
accept
accept
accept
accept
accept
accept
accept
accept
accept
accept
accept
accept
accept
accept
accept
accept
accept
accept
accept
accept
accept
accept
accept
accept
accept
accept
accept
accept
accept
accept
accept
accept
accept
accept
accept
accept
accept
accept
accept
accept
accept
accept
deny
deny
accept
accept
accept
accept
accept
accept
accept
accept
accept
accept
accept
accept
accept
accept
accept
accept
accept
accept
accept
accept
accept
accept
accept
accept
accept
accept
accept
accept
accept
accept
accept
accept
accept
accept
accept
accept
accept
accept
accept
accept
accept
accept
accept
accept
accept
accept
accept
accept
accept
accept
accept
accept
accept
accept
accept
accept
accept
accept
accept
accept
accept
accept
accept
accept
accept
accept
accept
accept
accept
accept
accept
accept
accept
accept
accept
accept
accept
accept
accept
accept
accept
accept
accept
accept
accept
accept
accept
accept
accept
accept
accept
accept
weight of 0 is 0.036359
weight of 1 is 1.788522
weight of 2 is -10.111111
weight of 3 is 4.000000
not used!
accept
accept
accept
accept
accept
accept
accept
accept
accept
accept
accept
accept
accept
accept
accept
accept
accept
accept
accept
accept
accept
accept
accept
accept
accept
accept
accept
accept
accept
accept
accept
accept
accept
accept
accept
accept
accept
accept
accept
accept
accept
accept
accept
accept
accept
accept
accept
accept
accept
accept
accept
accept
accept
accept
accept
accept
accept
accept
accept
accept
accept
accept
accept
accept
accept
accept
accept
accept
accept
accept
accept
accept
accept
accept
accept
accept
accept
accept
accept
accept
accept
accept
accept
accept
accept
accept
accept
accept
accept
accept
accept
accept
accept
accept
accept
accept
accept
accept
weight of 0 is 0.003151
weight of 1 is 1.479565
weight of 2 is -10.111111
weight of 3 is 3.000000
not used!
accept
accept
weight of 0 is -0.033853
weight of 1 is 1.170551
weight of 2 is -10.111111
weight of 3 is 2.000000
not used!
accept
accept
accept
accept
accept
accept
accept
accept
accept
accept
accept
accept
accept
accept
accept
accept
accept
accept
accept
accept
accept
accept
accept
accept
accept
accept
accept
accept
accept
accept
accept
accept
accept
accept
accept
accept
accept
accept
accept
accept
accept
accept
accept
accept
accept
accept
accept
accept
accept
accept
accept
accept
accept
accept
accept
accept
accept
accept
accept
accept
accept
accept
accept
accept
accept
accept
accept
accept
accept
accept
accept
accept
accept
accept
accept
accept
accept
accept
accept
accept
accept
accept
accept
accept
accept
accept
weight of 0 is -0.067076
weight of 1 is 0.861595
weight of 2 is -10.111111
weight of 3 is 1.000000
not used!
accept
accept
weight of 0 is -0.104095
weight of 1 is 0.552581
weight of 2 is -10.111111
weight of 3 is 0.000000
not used!
accept
accept
accept
accept
accept
accept
accept
accept
accept
accept
accept
accept
accept
accept
accept
accept
accept
accept
accept
accept
accept
accept
accept
accept
accept
accept
accept
accept
accept
accept
accept
accept
accept
accept
accept
accept
accept
accept
accept
accept
accept
accept
accept
accept
accept
accept
accept
accept
accept
accept
accept
accept
accept
accept
accept
accept
accept
accept
accept
accept
accept
accept
accept
accept
accept
accept
accept
accept
accept
accept
accept
accept
accept
accept
accept
accept
accept
accept
accept
accept
accept
accept
accept
accept
weight of 0 is -0.137333
weight of 1 is 0.243625
weight of 2 is -10.111111
weight of 3 is -1.000000
not used!
weight of 0 is -0.174367
weight of 1 is -0.065389
weight of 2 is -10.111111
weight of 3 is -2.000000
not used!
deny
deny
deny
deny
deny
deny
deny
deny
deny
deny
weight of 0 is -0.141114
weight of 1 is 0.243568
weight of 2 is -10.111111
weight of 3 is -1.000000
used!
weight of 0 is -0.107862
weight of 1 is 0.552525
weight of 2 is -10.111111
weight of 3 is 0.000000
used!
accept
accept
weight of 0 is -0.070813
weight of 1 is 0.861538
weight of 2 is -10.111111
weight of 3 is 1.000000
used!
weight of 0 is -0.033764
weight of 1 is 1.170551
weight of 2 is -10.111111
weight of 3 is 2.000000
used!
accept
accept
weight of 0 is -0.000512
weight of 1 is 1.479546
weight of 2 is -10.111111
weight of 3 is 3.000000
used!
weight of 0 is 0.032741
weight of 1 is 1.788540
weight of 2 is -10.111111
weight of 3 is 4.000000
used!
accept
accept
accept
accept
accept
accept
accept
accept
accept
accept
accept
accept
accept
accept
accept
accept
accept
accept
accept
accept
accept
accept
accept
accept
accept
accept
accept
accept
accept
accept
accept
accept
accept
accept
accept
accept
accept
accept
accept
accept
accept
accept
accept
accept
accept
accept
accept
accept
accept
accept
accept
accept
accept
accept
accept
accept
accept
accept
accept
accept
accept
accept
accept
accept
accept
accept
accept
accept
accept
accept
accept
accept
accept
accept
accept
accept
accept
accept
accept
accept
accept
accept
accept
accept
accept
accept
accept
accept
accept
accept
accept
accept
accept
accept
accept
accept
accept
accept
accept
accept
accept
accept
accept
accept
accept
accept
accept
accept
accept
accept
accept
accept
accept
accept
accept
accept
accept
accept
accept
accept
accept
accept
accept
accept
accept
accept
accept
accept
accept
accept
accept
accept
accept
accept
accept
accept
accept
accept
accept
accept
accept
accept
accept
accept
accept
accept
accept
accept
accept
accept
accept
accept
accept
accept
weight of 0 is -0.000526
weight of 1 is 1.479546
weight of 2 is -10.111111
weight of 3 is 3.000000
not used!
accept
accept
accept
accept
accept
accept
accept
accept
accept
accept
accept
accept
accept
accept
accept
accept
accept
accept
accept
accept
accept
accept
accept
accept
accept
accept
accept
accept
accept
accept
accept
accept
accept
accept
accept
accept
accept
accept
accept
accept
accept
accept
accept
accept
accept
accept
accept
accept
accept
accept
accept
accept
accept
accept
accept
accept
accept
accept
accept
accept
accept
accept
accept
accept
weight of 0 is -0.015652
weight of 1 is -2.784040
weight of 2 is -10.111111
weight of 3 is 2.000000
not used!
accept
accept
accept
accept
accept
accept
accept
accept
accept
accept
accept
accept
accept
accept
accept
accept
accept
accept
accept
accept
accept
accept
accept
accept
accept
accept
accept
accept
accept
accept
accept
accept
accept
accept
accept
accept
accept
accept
weight of 0 is -0.048934
weight of 1 is -3.092996
weight of 2 is -10.111111
weight of 3 is 1.000000
not used!
accept
accept
weight of 0 is -0.086012
weight of 1 is -3.402010
weight of 2 is -10.111111
weight of 3 is 0.000000
not used!
deny
deny
deny
deny
deny
deny
deny
deny
deny
deny
weight of 0 is -0.052715
weight of 1 is -3.093015
weight of 2 is -10.111111
weight of 3 is 1.000000
used!
weight of 0 is -0.019418
weight of 1 is -2.784021
weight of 2 is -10.111111
weight of 3 is 2.000000
used!
accept
accept
weight of 0 is 0.017675
weight of 1 is -2.475008
weight of 2 is -10.111111
weight of 3 is 3.000000
used!
weight of 0 is 0.054768
weight of 1 is -2.165994
weight of 2 is -10.111111
weight of 3 is 4.000000
used!
accept
accept
weight of 0 is 0.088065
weight of 1 is -1.857000
weight of 2 is -10.111111
weight of 3 is 5.000000
used!
weight of 0 is 0.121363
weight of 1 is -1.548006
weight of 2 is -10.111111
weight of 3 is 6.000000
used!
accept
accept
accept
accept
accept
accept
accept
accept
accept
accept
accept
accept
accept
accept
accept
accept
accept
accept
accept
accept
accept
accept
accept
accept
accept
accept
accept
accept
accept
accept
accept
accept
accept
accept
accept
accept
accept
accept
accept
accept
accept
accept
accept
accept
accept
accept
accept
accept
accept
accept
accept
accept
accept
accept
accept
accept
accept
accept
accept
accept
accept
accept
accept
accept
accept
accept
accept
accept
accept
accept
accept
accept
accept
accept
accept
accept
accept
accept
accept
accept
weight of 0 is 0.088066
weight of 1 is -1.856962
weight of 2 is -10.111111
weight of 3 is 5.000000
not used!
weight of 0 is 0.050973
weight of 1 is -2.165976
weight of 2 is -10.111111
weight of 3 is 4.000000
not used!
accept
accept
accept
accept
accept
accept
accept
accept
accept
accept
accept
accept
accept
accept
accept
accept
accept
accept
accept
accept
accept
accept
accept
accept
accept
accept
accept
accept
accept
accept
accept
accept
accept
accept
accept
accept
accept
accept
accept
accept
accept
accept
accept
accept
accept
accept
accept
accept
accept
accept
accept
accept
accept
accept
accept
accept
accept
accept
accept
accept
accept
accept
accept
accept
accept
accept
accept
accept
weight of 0 is 0.013865
weight of 1 is -2.475026
weight of 2 is -10.111111
weight of 3 is 3.000000
not used!
weight of 0 is -0.019446
weight of 1 is -2.784021
weight of 2 is -10.111111
weight of 3 is 2.000000
not used!
accept
accept
accept
accept
accept
accept
accept
accept
accept
accept
accept
accept
accept
accept
accept
accept
accept
accept
accept
accept
accept
accept
accept
accept
accept
accept
accept
accept
accept
accept
accept
accept
accept
accept
accept
accept
accept
accept
accept
accept
accept
accept
accept
accept
accept
accept
accept
accept
accept
accept
accept
accept
accept
accept
accept
accept
accept
accept
accept
accept
accept
accept
accept
accept
accept
accept
accept
accept
accept
accept
accept
accept
accept
accept
accept
accept
accept
accept
accept
accept
accept
accept
accept
accept
accept
accept
accept
accept
accept
accept
accept
accept
accept
accept
accept
accept
accept
accept
accept
accept
accept
accept
accept
accept
accept
accept
weight of 0 is -0.052772
weight of 1 is -3.092978
weight of 2 is -10.111111
weight of 3 is 1.000000
not used!
accept
accept
weight of 0 is -0.089895
weight of 1 is -3.401991
weight of 2 is -10.111111
weight of 3 is 0.000000
not used!
deny
deny
deny
deny
deny
deny
deny
deny
deny
deny
weight of 0 is -0.056553
weight of 1 is -3.092996
weight of 2 is -10.111111
weight of 3 is 1.000000
used!
weight of 0 is -0.023212
weight of 1 is -2.784002
weight of 2 is -10.111111
weight of 3 is 2.000000
used!
accept
accept
weight of 0 is 0.013925
weight of 1 is -2.474989
weight of 2 is -10.111111
weight of 3 is 3.000000
used!
weight of 0 is 0.051063
weight of 1 is -2.165976
weight of 2 is -10.111111
weight of 3 is 4.000000
used!
accept
accept
weight of 0 is 0.084405
weight of 1 is -1.856981
weight of 2 is -10.111111
weight of 3 is 5.000000
used!
weight of 0 is 0.117746
weight of 1 is -1.547987
weight of 2 is -10.111111
weight of 3 is 6.000000
used!
accept
accept
accept
accept
accept
accept
accept
accept
accept
accept
accept
accept
accept
accept
accept
accept
accept
accept
accept
accept
accept
accept
accept
accept
accept
accept
accept
accept
accept
accept
accept
accept
accept
accept
accept
accept
accept
accept
accept
accept
accept
accept
accept
accept
accept
accept
accept
accept
accept
accept
accept
accept
accept
accept
accept
accept
accept
accept
accept
accept
accept
accept
accept
accept
accept
accept
accept
accept
accept
accept
accept
accept
accept
accept
accept
accept
accept
accept
accept
accept
weight of 0 is 0.084405
weight of 1 is -1.856944
weight of 2 is -10.111111
weight of 3 is 5.000000
not used!
weight of 0 is 0.047268
weight of 1 is -2.165957
weight of 2 is -10.111111
weight of 3 is 4.000000
not used!
accept
accept
accept
accept
accept
accept
accept
accept
accept
accept
accept
accept
accept
accept
accept
accept
accept
accept
accept
accept
accept
accept
accept
accept
accept
accept
accept
accept
accept
accept
accept
accept
accept
accept
accept
accept
accept
accept
accept
accept
accept
accept
accept
accept
accept
accept
accept
accept
accept
accept
accept
accept
accept
accept
accept
accept
accept
accept
accept
accept
accept
accept
accept
accept
accept
accept
accept
accept
weight of 0 is 0.010116
weight of 1 is -2.475008
weight of 2 is -10.111111
weight of 3 is 3.000000
not used!
weight of 0 is -0.023240
weight of 1 is -2.784002
weight of 2 is -10.111111
weight of 3 is 2.000000
not used!
deny
deny
deny
deny
accept
accept
accept
accept
accept
accept
accept
accept
accept
accept
accept
accept
accept
accept
accept
accept
accept
accept
accept
accept
accept
accept
accept
accept
accept
accept
accept
accept
accept
accept
accept
accept
accept
accept
accept
accept
accept
accept
accept
accept
accept
accept
accept
accept
accept
accept
accept
accept
accept
accept
accept
accept
accept
accept
accept
accept
accept
accept
accept
accept
accept
accept
accept
accept
accept
accept
accept
accept
accept
accept
accept
accept
accept
accept
weight of 0 is -0.060407
weight of 1 is -3.093053
weight of 2 is -10.111111
weight of 3 is 1.000000
not used!
accept
accept
accept
accept
accept
accept
accept
accept
accept
accept
accept
accept
accept
accept
accept
accept
accept
accept
accept
accept
accept
accept
accept
accept
accept
accept
accept
accept
accept
accept
accept
accept
accept
accept
accept
accept
accept
accept
accept
accept
accept
accept
accept
accept
accept
accept
accept
accept
accept
accept
accept
accept
accept
accept
accept
accept
accept
accept
accept
accept
accept
accept
accept
accept
accept
accept
accept
accept
accept
accept
accept
accept
accept
accept
accept
accept
accept
accept
accept
accept
accept
accept
accept
accept
accept
accept
accept
accept
weight of 0 is -0.093792
weight of 1 is -3.402010
weight of 2 is -10.111111
weight of 3 is 0.000000
not used!
weight of 0 is -0.130974
weight of 1 is -3.711023
weight of 2 is -10.111111
weight of 3 is -1.000000
not used!
deny
deny
deny
deny
deny
deny
deny
deny
deny
deny
weight of 0 is -0.097578
weight of 1 is -3.402066
weight of 2 is -10.111111
weight of 3 is 0.000000
used!
weight of 0 is -0.064183
weight of 1 is -3.093109
weight of 2 is -10.111111
weight of 3 is 1.000000
used!
accept
accept
weight of 0 is -0.026991
weight of 1 is -2.784096
weight of 2 is -10.111111
weight of 3 is 2.000000
used!
weight of 0 is 0.010200
weight of 1 is -2.475083
weight of 2 is -10.111111
weight of 3 is 3.000000
used!
accept
accept
weight of 0 is 0.043596
weight of 1 is -2.166088
weight of 2 is -10.111111
weight of 3 is 4.000000
used!
weight of 0 is 0.076991
weight of 1 is -1.857094
weight of 2 is -10.111111
weight of 3 is 5.000000
used!
accept
accept
accept
accept
accept
accept
accept
accept
accept
accept
accept
accept
accept
accept
accept
accept
accept
accept
accept
accept
accept
accept
accept
accept
accept
accept
accept
accept
accept
accept
accept
accept
accept
accept
accept
accept
accept
accept
accept
accept
Exiting @ tick 300841212000 because a thread reached the max instruction count
