Running SPEC test: exchange2

/home/victorfu/cpu2017/benchspec/CPU/548.exchange2_r
/home/victorfu/finalproject/gem5/build/X86/gem6.opt --outdir="/home/victorfu/output/bench_spec/fastforward-p3/exchange2" /home/victorfu/finalproject/gem5/configs/example/se.py --cmd=exchange2_r_base.victor_jun10-m64 --standard-switch=1 --warmup-insts=87000000 --caches  --l2cache --l1i_size=16kB  --l1d_size=64kB --l2_size=256kB --cpu-type=DerivO3CPU  --mem-type=DDR3_1600_8x8  --cpu-clock=1GHz --maxinsts=100000000 --options="6" --l2-hwp-type=TaggedPrefetcher --mlu_pf_type=perceptron

gem5 Simulator System.  http://gem5.org
gem5 is copyrighted software; use the --copyright option for details.

gem5 compiled Jun 14 2019 14:23:51
gem5 started Jun 14 2019 19:50:59
gem5 executing on tetracosa.cs.ucla.edu, pid 444392
command line: /home/victorfu/finalproject/gem5/build/X86/gem6.opt --outdir=/home/victorfu/output/bench_spec/fastforward-p3/exchange2 /home/victorfu/finalproject/gem5/configs/example/se.py --cmd=exchange2_r_base.victor_jun10-m64 --standard-switch=1 --warmup-insts=87000000 --caches --l2cache --l1i_size=16kB --l1d_size=64kB --l2_size=256kB --cpu-type=DerivO3CPU --mem-type=DDR3_1600_8x8 --cpu-clock=1GHz --maxinsts=100000000 --options=6 --l2-hwp-type=TaggedPrefetcher --mlu_pf_type=perceptron

info: Standard input is not a terminal, disabling listeners.
Warning: l2-hwp-type is set ( TaggedPrefetcher ), but the current l2 has a default Hardware Prefetcher of type <class 'm5.params.NullSimObject'> , using the specified by the flag option.
MLU-Prefetch Perceptron Enabled.
Global frequency set at 1000000000000 ticks per second
warn: DRAM device capacity (8192 Mbytes) does not match the address range assigned (512 Mbytes)
warn: Sockets disabled, not accepting gdb connections
Switch at instruction count:1
info: Entering event queue @ 0.  Starting simulation...
accept
accept
accept
accept
Switched CPUS @ tick 120000
switching cpus
info: Entering event queue @ 120000.  Starting simulation...
accept
accept
accept
accept
warn: ClockedObject: Already in the requested power state, request ignored
Switch at instruction count:87000000
info: Entering event queue @ 8066000.  Starting simulation...
accept
accept
accept
accept
accept
accept
accept
accept
accept
accept
accept
accept
accept
accept
accept
accept
accept
accept
accept
accept
accept
accept
accept
accept
accept
accept
accept
accept
accept
accept
accept
accept
accept
accept
accept
accept
accept
accept
accept
accept
accept
accept
accept
accept
accept
accept
accept
accept
accept
accept
accept
accept
accept
accept
accept
accept
accept
accept
accept
accept
accept
accept
accept
accept
accept
accept
accept
accept
accept
accept
accept
accept
accept
accept
accept
accept
accept
accept
accept
accept
accept
accept
accept
accept
accept
accept
accept
accept
accept
accept
accept
accept
accept
accept
accept
accept
accept
accept
info: Increasing stack size by one page.
accept
accept
accept
accept
accept
accept
accept
accept
accept
accept
accept
accept
accept
accept
accept
accept
accept
accept
accept
accept
accept
accept
accept
accept
accept
accept
accept
accept
accept
accept
accept
accept
accept
accept
accept
accept
accept
accept
accept
accept
accept
accept
accept
accept
accept
accept
accept
accept
accept
accept
accept
accept
accept
accept
accept
accept
accept
accept
accept
accept
accept
accept
accept
accept
accept
accept
accept
accept
accept
accept
accept
accept
accept
accept
accept
accept
accept
accept
accept
accept
accept
accept
accept
accept
accept
accept
accept
accept
accept
accept
accept
accept
accept
accept
accept
accept
accept
accept
accept
accept
accept
accept
accept
accept
accept
accept
accept
accept
accept
accept
accept
accept
accept
accept
accept
accept
accept
accept
accept
accept
accept
accept
accept
accept
accept
accept
accept
accept
accept
accept
accept
accept
accept
accept
accept
accept
accept
accept
accept
accept
accept
accept
accept
accept
accept
accept
accept
accept
accept
accept
accept
accept
accept
accept
accept
accept
accept
accept
weight of 0 is -0.493135
weight of 1 is -0.000279
weight of 2 is -0.355556
weight of 3 is -1.000000
not used!
deny
deny
deny
deny
deny
deny
deny
deny
deny
deny
weight of 0 is -0.986280
weight of 1 is -0.041266
weight of 2 is -1.422222
weight of 3 is -2.000000
not used!
deny
deny
weight of 0 is -0.493639
weight of 1 is -0.033610
weight of 2 is -0.711111
weight of 3 is -1.000000
used!
weight of 0 is -0.000997
weight of 1 is -0.025955
weight of 2 is 0.000000
weight of 3 is 0.000000
used!
accept
accept
weight of 0 is 0.491644
weight of 1 is -0.025945
weight of 2 is 0.000000
weight of 3 is 1.000000
used!
weight of 0 is 0.984285
weight of 1 is -0.025936
weight of 2 is 0.000000
weight of 3 is 2.000000
used!
accept
accept
weight of 0 is 0.491140
weight of 1 is -0.026894
weight of 2 is 0.000000
weight of 3 is 1.000000
not used!
accept
accept
weight of 0 is -0.001995
weight of 1 is -0.027796
weight of 2 is 0.000000
weight of 3 is 0.000000
not used!
accept
accept
accept
accept
weight of 0 is -0.494636
weight of 1 is -0.029111
weight of 2 is 0.000000
weight of 3 is -1.000000
not used!
deny
deny
weight of 0 is -0.987261
weight of 1 is -0.030431
weight of 2 is -1.066667
weight of 3 is -2.000000
not used!
weight of 0 is -1.480392
weight of 1 is -0.071645
weight of 2 is -1.777778
weight of 3 is -3.000000
not used!
deny
deny
weight of 0 is -1.973015
weight of 1 is -0.071907
weight of 2 is -1.866667
weight of 3 is -4.000000
not used!
deny
deny
weight of 0 is -1.480373
weight of 1 is -0.052368
weight of 2 is -0.800000
weight of 3 is -3.000000
used!
weight of 0 is -0.987732
weight of 1 is -0.032830
weight of 2 is 0.266667
weight of 3 is -2.000000
used!
weight of 0 is -1.480762
weight of 1 is -0.066007
weight of 2 is 0.266667
weight of 3 is -3.000000
not used!
weight of 0 is -1.973403
weight of 1 is -0.097534
weight of 2 is -0.977778
weight of 3 is -4.000000
not used!
deny
deny
weight of 0 is -1.480762
weight of 1 is -0.097529
weight of 2 is -0.977778
weight of 3 is -3.000000
used!
weight of 0 is -0.988121
weight of 1 is -0.097525
weight of 2 is -0.977778
weight of 3 is -2.000000
used!
deny
deny
deny
deny
weight of 0 is -1.480742
weight of 1 is -0.099287
weight of 2 is -1.066667
weight of 3 is -3.000000
not used!
deny
deny
weight of 0 is -1.973362
weight of 1 is -0.099315
weight of 2 is -1.866667
weight of 3 is -4.000000
not used!
deny
deny
weight of 0 is -1.480721
weight of 1 is -0.091289
weight of 2 is -1.866667
weight of 3 is -3.000000
used!
weight of 0 is -0.988080
weight of 1 is -0.083262
weight of 2 is -1.866667
weight of 3 is -2.000000
used!
weight of 0 is -1.480702
weight of 1 is -0.083381
weight of 2 is -3.200000
weight of 3 is -3.000000
not used!
deny
deny
deny
deny
weight of 0 is -0.988061
weight of 1 is -0.083363
weight of 2 is -3.200000
weight of 3 is -2.000000
used!
weight of 0 is -0.495419
weight of 1 is -0.083344
weight of 2 is -3.200000
weight of 3 is -1.000000
used!
weight of 0 is -0.988044
weight of 1 is -0.083683
weight of 2 is -3.200000
weight of 3 is -2.000000
not used!
deny
deny
deny
deny
deny
deny
weight of 0 is -0.495403
weight of 1 is -0.045165
weight of 2 is -3.200000
weight of 3 is -1.000000
used!
weight of 0 is -0.002762
weight of 1 is -0.006646
weight of 2 is -3.200000
weight of 3 is 0.000000
used!
accept
accept
weight of 0 is 0.489879
weight of 1 is -0.006512
weight of 2 is -3.200000
weight of 3 is 1.000000
used!
weight of 0 is 0.982521
weight of 1 is -0.006378
weight of 2 is -3.200000
weight of 3 is 2.000000
used!
weight of 0 is 0.489346
weight of 1 is -0.051132
weight of 2 is -3.377778
weight of 3 is 1.000000
not used!
accept
accept
weight of 0 is -0.003296
weight of 1 is -0.083462
weight of 2 is -3.733333
weight of 3 is 0.000000
not used!
weight of 0 is -0.495777
weight of 1 is -0.096454
weight of 2 is -4.800000
weight of 3 is -1.000000
not used!
deny
deny
weight of 0 is -0.988922
weight of 1 is -0.139301
weight of 2 is -5.333333
weight of 3 is -2.000000
not used!
deny
deny
weight of 0 is -1.481563
weight of 1 is -0.180283
weight of 2 is -5.333333
weight of 3 is -3.000000
not used!
deny
deny
weight of 0 is -0.988922
weight of 1 is -0.180161
weight of 2 is -4.622222
weight of 3 is -2.000000
used!
weight of 0 is -0.496281
weight of 1 is -0.180039
weight of 2 is -3.911111
weight of 3 is -1.000000
used!
deny
deny
weight of 0 is -0.989422
weight of 1 is -0.220762
weight of 2 is -4.800000
weight of 3 is -2.000000
not used!
deny
deny
deny
deny
weight of 0 is -0.496781
weight of 1 is -0.211244
weight of 2 is -3.733333
weight of 3 is -1.000000
used!
weight of 0 is -0.004139
weight of 1 is -0.201726
weight of 2 is -2.666667
weight of 3 is 0.000000
used!
weight of 0 is -0.496988
weight of 1 is -0.218581
weight of 2 is -3.911111
weight of 3 is -1.000000
not used!
deny
deny
weight of 0 is -0.989836
weight of 1 is -0.218599
weight of 2 is -5.155556
weight of 3 is -2.000000
not used!
deny
deny
deny
deny
deny
deny
deny
deny
deny
deny
weight of 0 is -0.497194
weight of 1 is -0.203187
weight of 2 is -5.155556
weight of 3 is -1.000000
used!
weight of 0 is -0.004553
weight of 1 is -0.187774
weight of 2 is -5.155556
weight of 3 is 0.000000
used!
weight of 0 is -0.497263
weight of 1 is -0.193413
weight of 2 is -5.333333
weight of 3 is -1.000000
not used!
deny
deny
weight of 0 is -0.989973
weight of 1 is -0.193433
weight of 2 is -5.422222
weight of 3 is -2.000000
not used!
deny
deny
weight of 0 is -0.497332
weight of 1 is -0.189466
weight of 2 is -5.422222
weight of 3 is -1.000000
used!
weight of 0 is -0.004691
weight of 1 is -0.185500
weight of 2 is -5.422222
weight of 3 is 0.000000
used!
weight of 0 is -0.497332
weight of 1 is -0.190999
weight of 2 is -5.955556
weight of 3 is -1.000000
not used!
deny
deny
weight of 0 is -0.990042
weight of 1 is -0.196486
weight of 2 is -6.577778
weight of 3 is -2.000000
not used!
deny
deny
weight of 0 is -0.497401
weight of 1 is -0.178774
weight of 2 is -5.511111
weight of 3 is -1.000000
used!
weight of 0 is -0.004759
weight of 1 is -0.161062
weight of 2 is -4.444444
weight of 3 is 0.000000
used!
accept
accept
weight of 0 is 0.487882
weight of 1 is -0.157178
weight of 2 is -4.444444
weight of 3 is 1.000000
used!
weight of 0 is 0.980523
weight of 1 is -0.153294
weight of 2 is -4.444444
weight of 3 is 2.000000
used!
deny
deny
accept
accept
weight of 0 is 0.487676
weight of 1 is -0.170134
weight of 2 is -4.444444
weight of 3 is 1.000000
not used!
deny
deny
warn: ignoring syscall access(...)
deny
deny
weight of 0 is -0.005134
weight of 1 is -0.183879
weight of 2 is -5.333333
weight of 3 is 0.000000
not used!
accept
accept
weight of 0 is -0.497986
weight of 1 is -0.201011
weight of 2 is -6.577778
weight of 3 is -1.000000
not used!
deny
deny
deny
deny
weight of 0 is -0.990793
weight of 1 is -0.204670
weight of 2 is -6.755556
weight of 3 is -2.000000
not used!
deny
deny
weight of 0 is -1.483434
weight of 1 is -0.218018
weight of 2 is -7.644444
weight of 3 is -3.000000
not used!
deny
deny
deny
deny
deny
deny
weight of 0 is -0.990793
weight of 1 is -0.213840
weight of 2 is -7.288889
weight of 3 is -2.000000
used!
weight of 0 is -0.498151
weight of 1 is -0.209663
weight of 2 is -6.933333
weight of 3 is -1.000000
used!
deny
deny
weight of 0 is -0.005510
weight of 1 is -0.209648
weight of 2 is -6.933333
weight of 3 is 0.000000
used!
weight of 0 is 0.487131
weight of 1 is -0.209634
weight of 2 is -6.933333
weight of 3 is 1.000000
used!
accept
accept
weight of 0 is -0.006070
weight of 1 is -0.255201
weight of 2 is -8.177778
weight of 3 is 0.000000
not used!
deny
deny
weight of 0 is 0.486571
weight of 1 is -0.255182
weight of 2 is -8.177778
weight of 3 is 1.000000
used!
weight of 0 is 0.979213
weight of 1 is -0.255163
weight of 2 is -8.177778
weight of 3 is 2.000000
used!
weight of 0 is 0.486012
weight of 1 is -0.255203
weight of 2 is -9.244444
weight of 3 is 1.000000
not used!
accept
accept
weight of 0 is 0.978654
weight of 1 is -0.255184
weight of 2 is -9.244444
weight of 3 is 2.000000
used!
weight of 0 is 1.471295
weight of 1 is -0.255165
weight of 2 is -9.244444
weight of 3 is 3.000000
used!
weight of 0 is 0.978152
weight of 1 is -0.255194
weight of 2 is -9.244444
weight of 3 is 2.000000
not used!
weight of 0 is 0.485510
weight of 1 is -0.296037
weight of 2 is -9.244444
weight of 3 is 1.000000
not used!
deny
deny
weight of 0 is -0.007689
weight of 1 is -0.341491
weight of 2 is -9.777778
weight of 3 is 0.000000
not used!
accept
accept
weight of 0 is -0.500331
weight of 1 is -0.361576
weight of 2 is -10.133333
weight of 3 is -1.000000
not used!
deny
deny
deny
deny
weight of 0 is -0.992972
weight of 1 is -0.362986
weight of 2 is -10.488889
weight of 3 is -2.000000
not used!
deny
deny
weight of 0 is -1.485613
weight of 1 is -0.389720
weight of 2 is -10.844444
weight of 3 is -3.000000
not used!
weight of 0 is -1.978254
weight of 1 is -0.389804
weight of 2 is -11.911111
weight of 3 is -4.000000
not used!
deny
deny
deny
deny
deny
deny
weight of 0 is -2.471320
weight of 1 is -0.424338
weight of 2 is -13.155556
weight of 3 is -5.000000
not used!
deny
deny
deny
deny
weight of 0 is -1.978678
weight of 1 is -0.401929
weight of 2 is -12.088889
weight of 3 is -4.000000
used!
weight of 0 is -1.486037
weight of 1 is -0.379521
weight of 2 is -11.022222
weight of 3 is -3.000000
used!
weight of 0 is -1.979102
weight of 1 is -0.379539
weight of 2 is -12.266667
weight of 3 is -4.000000
not used!
deny
deny
weight of 0 is -1.486461
weight of 1 is -0.379535
weight of 2 is -12.266667
weight of 3 is -3.000000
used!
weight of 0 is -0.993820
weight of 1 is -0.379530
weight of 2 is -12.266667
weight of 3 is -2.000000
used!
weight of 0 is -1.486461
weight of 1 is -0.396258
weight of 2 is -12.977778
weight of 3 is -3.000000
not used!
deny
deny
weight of 0 is -0.993820
weight of 1 is -0.396239
weight of 2 is -12.977778
weight of 3 is -2.000000
used!
weight of 0 is -0.501178
weight of 1 is -0.396220
weight of 2 is -12.977778
weight of 3 is -1.000000
used!
weight of 0 is -0.993865
weight of 1 is -0.399910
weight of 2 is -14.266667
weight of 3 is -2.000000
not used!
deny
deny
weight of 0 is -1.486506
weight of 1 is -0.403534
weight of 2 is -14.266667
weight of 3 is -3.000000
not used!
deny
deny
deny
deny
deny
deny
deny
deny
weight of 0 is -1.979147
weight of 1 is -0.405380
weight of 2 is -15.333333
weight of 3 is -4.000000
not used!
deny
deny
weight of 0 is -2.471788
weight of 1 is -0.405441
weight of 2 is -16.044444
weight of 3 is -5.000000
not used!
deny
deny
weight of 0 is -1.979147
weight of 1 is -0.402802
weight of 2 is -15.333333
weight of 3 is -4.000000
used!
weight of 0 is -1.486506
weight of 1 is -0.400162
weight of 2 is -14.622222
weight of 3 is -3.000000
used!
deny
deny
deny
deny
deny
deny
deny
deny
deny
deny
deny
deny
deny
deny
deny
deny
deny
deny
deny
deny
deny
deny
weight of 0 is -0.993865
weight of 1 is -0.372768
weight of 2 is -13.555556
weight of 3 is -2.000000
used!
weight of 0 is -0.501223
weight of 1 is -0.345374
weight of 2 is -12.488889
weight of 3 is -1.000000
used!
weight of 0 is -0.993864
weight of 1 is -0.375701
weight of 2 is -12.666667
weight of 3 is -2.000000
not used!
deny
deny
deny
deny
deny
deny
weight of 0 is -0.501223
weight of 1 is -0.337997
weight of 2 is -12.666667
weight of 3 is -1.000000
used!
weight of 0 is -0.008582
weight of 1 is -0.300294
weight of 2 is -12.666667
weight of 3 is 0.000000
used!
weight of 0 is -0.501597
weight of 1 is -0.300350
weight of 2 is -12.844444
weight of 3 is -1.000000
not used!
deny
deny
weight of 0 is -0.008955
weight of 1 is -0.262940
weight of 2 is -12.844444
weight of 3 is 0.000000
used!
weight of 0 is 0.483686
weight of 1 is -0.225530
weight of 2 is -12.844444
weight of 3 is 1.000000
used!
weight of 0 is -0.009327
weight of 1 is -0.225661
weight of 2 is -13.022222
weight of 3 is 0.000000
not used!
weight of 0 is -0.501969
weight of 1 is -0.255930
weight of 2 is -13.022222
weight of 3 is -1.000000
not used!
deny
deny
weight of 0 is -0.994962
weight of 1 is -0.284637
weight of 2 is -13.022222
weight of 3 is -2.000000
not used!
weight of 0 is -1.487604
weight of 1 is -0.313269
weight of 2 is -13.022222
weight of 3 is -3.000000
not used!
deny
deny
deny
deny
weight of 0 is -1.980747
weight of 1 is -0.343399
weight of 2 is -14.088889
weight of 3 is -4.000000
not used!
weight of 0 is -2.473389
weight of 1 is -0.373745
weight of 2 is -14.800000
weight of 3 is -5.000000
not used!
deny
deny
weight of 0 is -2.966539
weight of 1 is -0.403284
weight of 2 is -15.955556
weight of 3 is -6.000000
not used!
deny
deny
deny
deny
weight of 0 is -2.473898
weight of 1 is -0.403040
weight of 2 is -15.955556
weight of 3 is -5.000000
used!
weight of 0 is -1.981257
weight of 1 is -0.402796
weight of 2 is -15.955556
weight of 3 is -4.000000
used!
weight of 0 is -2.473898
weight of 1 is -0.442847
weight of 2 is -15.955556
weight of 3 is -5.000000
not used!
deny
deny
deny
deny
deny
deny
deny
deny
deny
deny
weight of 0 is -1.981257
weight of 1 is -0.421805
weight of 2 is -15.955556
weight of 3 is -4.000000
used!
weight of 0 is -1.488615
weight of 1 is -0.400763
weight of 2 is -15.955556
weight of 3 is -3.000000
used!
weight of 0 is -1.981257
weight of 1 is -0.400791
weight of 2 is -16.311111
weight of 3 is -4.000000
not used!
deny
deny
weight of 0 is -1.488615
weight of 1 is -0.400618
weight of 2 is -15.955556
weight of 3 is -3.000000
used!
weight of 0 is -0.995974
weight of 1 is -0.400444
weight of 2 is -15.600000
weight of 3 is -2.000000
used!
deny
deny
deny
deny
deny
deny
deny
deny
weight of 0 is -1.488096
weight of 1 is -0.400498
weight of 2 is -15.777778
weight of 3 is -3.000000
not used!
deny
deny
deny
deny
deny
deny
deny
deny
deny
deny
deny
deny
deny
deny
weight of 0 is -1.980737
weight of 1 is -0.428742
weight of 2 is -16.488889
weight of 3 is -4.000000
not used!
deny
deny
weight of 0 is -2.473004
weight of 1 is -0.459202
weight of 2 is -16.755556
weight of 3 is -5.000000
not used!
deny
deny
deny
deny
deny
deny
deny
deny
deny
deny
deny
deny
deny
deny
weight of 0 is -2.965646
weight of 1 is -0.465219
weight of 2 is -17.288889
weight of 3 is -6.000000
not used!
deny
deny
weight of 0 is -2.473004
weight of 1 is -0.465148
weight of 2 is -16.222222
weight of 3 is -5.000000
used!
weight of 0 is -1.980363
weight of 1 is -0.465078
weight of 2 is -15.155556
weight of 3 is -4.000000
used!
weight of 0 is -2.473004
weight of 1 is -0.465390
weight of 2 is -15.155556
weight of 3 is -5.000000
not used!
deny
deny
weight of 0 is -1.980363
weight of 1 is -0.465282
weight of 2 is -14.088889
weight of 3 is -4.000000
used!
weight of 0 is -1.487722
weight of 1 is -0.465174
weight of 2 is -13.022222
weight of 3 is -3.000000
used!
deny
deny
deny
deny
weight of 0 is -0.995081
weight of 1 is -0.464254
weight of 2 is -12.311111
weight of 3 is -2.000000
used!
weight of 0 is -0.502439
weight of 1 is -0.463333
weight of 2 is -11.600000
weight of 3 is -1.000000
used!
weight of 0 is -0.995015
weight of 1 is -0.469606
weight of 2 is -11.777778
weight of 3 is -2.000000
not used!
deny
deny
weight of 0 is -1.488156
weight of 1 is -0.515583
weight of 2 is -12.311111
weight of 3 is -3.000000
not used!
deny
deny
deny
deny
deny
deny
deny
deny
weight of 0 is -0.995515
weight of 1 is -0.515578
weight of 2 is -12.311111
weight of 3 is -2.000000
used!
weight of 0 is -0.502873
weight of 1 is -0.515573
weight of 2 is -12.311111
weight of 3 is -1.000000
used!
weight of 0 is -0.994867
weight of 1 is -0.557976
weight of 2 is -12.844444
weight of 3 is -2.000000
not used!
deny
deny
weight of 0 is -0.502226
weight of 1 is -0.540913
weight of 2 is -12.488889
weight of 3 is -1.000000
used!
weight of 0 is -0.009585
weight of 1 is -0.523849
weight of 2 is -12.133333
weight of 3 is 0.000000
used!
weight of 0 is -0.502226
weight of 1 is -0.566301
weight of 2 is -12.133333
weight of 3 is -1.000000
not used!
deny
deny
deny
deny
weight of 0 is -0.009585
weight of 1 is -0.566287
weight of 2 is -12.133333
weight of 3 is 0.000000
used!
weight of 0 is 0.483057
weight of 1 is -0.566273
weight of 2 is -12.133333
weight of 3 is 1.000000
used!
weight of 0 is -0.009732
weight of 1 is -0.566405
weight of 2 is -13.022222
weight of 3 is 0.000000
not used!
deny
deny
weight of 0 is -0.502749
weight of 1 is -0.566460
weight of 2 is -14.000000
weight of 3 is -1.000000
not used!
deny
deny
weight of 0 is -0.995768
weight of 1 is -0.566485
weight of 2 is -14.533333
weight of 3 is -2.000000
not used!
deny
deny
deny
deny
weight of 0 is -0.503126
weight of 1 is -0.531718
weight of 2 is -14.533333
weight of 3 is -1.000000
used!
weight of 0 is -0.010485
weight of 1 is -0.496952
weight of 2 is -14.533333
weight of 3 is 0.000000
used!
accept
accept
weight of 0 is 0.482156
weight of 1 is -0.496820
weight of 2 is -14.533333
weight of 3 is 1.000000
used!
weight of 0 is 0.974798
weight of 1 is -0.496689
weight of 2 is -14.533333
weight of 3 is 2.000000
used!
weight of 0 is 0.481632
weight of 1 is -0.498333
weight of 2 is -15.777778
weight of 3 is 1.000000
not used!
deny
deny
deny
deny
deny
deny
deny
deny
deny
deny
deny
deny
deny
deny
deny
deny
deny
deny
deny
deny
deny
deny
weight of 0 is 0.974610
weight of 1 is -0.490857
weight of 2 is -14.800000
weight of 3 is 2.000000
used!
weight of 0 is 1.467588
weight of 1 is -0.483382
weight of 2 is -13.822222
weight of 3 is 3.000000
used!
deny
deny
accept
accept
weight of 0 is 1.960567
weight of 1 is -0.475818
weight of 2 is -12.488889
weight of 3 is 4.000000
used!
weight of 0 is 2.453546
weight of 1 is -0.468255
weight of 2 is -11.155556
weight of 3 is 5.000000
used!
deny
deny
weight of 0 is 2.946620
weight of 1 is -0.460628
weight of 2 is -9.866667
weight of 3 is 6.000000
used!
weight of 0 is 3.439694
weight of 1 is -0.453001
weight of 2 is -8.577778
weight of 3 is 7.000000
used!
accept
accept
accept
accept
weight of 0 is 3.932335
weight of 1 is -0.452867
weight of 2 is -7.866667
weight of 3 is 8.000000
used!
weight of 0 is 4.424977
weight of 1 is -0.452733
weight of 2 is -7.155556
weight of 3 is 9.000000
used!
weight of 0 is 3.931835
weight of 1 is -0.493476
weight of 2 is -8.044444
weight of 3 is 8.000000
not used!
accept
accept
weight of 0 is 4.424476
weight of 1 is -0.489324
weight of 2 is -8.044444
weight of 3 is 9.000000
used!
weight of 0 is 4.917118
weight of 1 is -0.485172
weight of 2 is -8.044444
weight of 3 is 10.000000
used!
weight of 0 is 4.423975
weight of 1 is -0.485233
weight of 2 is -9.288889
weight of 3 is 9.000000
not used!
accept
accept
accept
accept
weight of 0 is 3.931334
weight of 1 is -0.525973
weight of 2 is -9.822222
weight of 3 is 8.000000
not used!
accept
accept
weight of 0 is 3.438194
weight of 1 is -0.566570
weight of 2 is -10.177778
weight of 3 is 7.000000
not used!
weight of 0 is 2.945553
weight of 1 is -0.607113
weight of 2 is -10.533333
weight of 3 is 6.000000
not used!
weight of 0 is 2.452911
weight of 1 is -0.632804
weight of 2 is -11.600000
weight of 3 is 5.000000
not used!
weight of 0 is 1.960041
weight of 1 is -0.651467
weight of 2 is -11.777778
weight of 3 is 4.000000
not used!
accept
accept
weight of 0 is 1.467172
weight of 1 is -0.670060
weight of 2 is -13.022222
weight of 3 is 3.000000
not used!
accept
accept
weight of 0 is 0.974530
weight of 1 is -0.687074
weight of 2 is -13.377778
weight of 3 is 2.000000
not used!
deny
deny
accept
accept
accept
accept
deny
deny
accept
accept
weight of 0 is 0.481889
weight of 1 is -0.687081
weight of 2 is -13.377778
weight of 3 is 1.000000
not used!
accept
accept
weight of 0 is -0.010752
weight of 1 is -0.687132
weight of 2 is -13.555556
weight of 3 is 0.000000
not used!
accept
accept
deny
deny
deny
deny
accept
accept
accept
accept
deny
deny
deny
deny
deny
deny
deny
deny
accept
accept
deny
deny
accept
accept
deny
deny
accept
accept
weight of 0 is -0.503393
weight of 1 is -0.687358
weight of 2 is -13.555556
weight of 3 is -1.000000
not used!
deny
deny
deny
deny
deny
deny
deny
deny
deny
deny
deny
deny
weight of 0 is -0.010316
weight of 1 is -0.687249
weight of 2 is -12.577778
weight of 3 is 0.000000
used!
weight of 0 is 0.482761
weight of 1 is -0.687139
weight of 2 is -11.600000
weight of 3 is 1.000000
used!
deny
deny
weight of 0 is 0.975837
weight of 1 is -0.685547
weight of 2 is -10.888889
weight of 3 is 2.000000
used!
weight of 0 is 1.468914
weight of 1 is -0.683955
weight of 2 is -10.177778
weight of 3 is 3.000000
used!
weight of 0 is 0.976273
weight of 1 is -0.683957
weight of 2 is -10.177778
weight of 3 is 2.000000
not used!
weight of 0 is 0.483632
weight of 1 is -0.683964
weight of 2 is -10.177778
weight of 3 is 1.000000
not used!
accept
accept
deny
deny
accept
accept
accept
accept
weight of 0 is -0.009009
weight of 1 is -0.684866
weight of 2 is -10.177778
weight of 3 is 0.000000
not used!
accept
accept
accept
accept
deny
deny
accept
accept
weight of 0 is -0.501650
weight of 1 is -0.684871
weight of 2 is -10.177778
weight of 3 is -1.000000
not used!
deny
deny
deny
deny
weight of 0 is -0.008574
weight of 1 is -0.684817
weight of 2 is -9.377778
weight of 3 is 0.000000
used!
weight of 0 is 0.484502
weight of 1 is -0.684763
weight of 2 is -8.577778
weight of 3 is 1.000000
used!
deny
deny
accept
accept
weight of 0 is 0.977143
weight of 1 is -0.645079
weight of 2 is -7.511111
weight of 3 is 2.000000
used!
weight of 0 is 1.469784
weight of 1 is -0.605396
weight of 2 is -6.444444
weight of 3 is 3.000000
used!
deny
deny
deny
deny
deny
deny
accept
accept
accept
accept
warn: ignoring syscall mprotect(...)
accept
accept
deny
deny
accept
accept
accept
accept
accept
accept
accept
accept
accept
accept
accept
accept
accept
accept
accept
accept
accept
accept
accept
accept
accept
accept
accept
accept
deny
deny
accept
accept
deny
deny
accept
accept
deny
deny
accept
accept
deny
deny
accept
accept
accept
accept
deny
deny
deny
deny
weight of 0 is 0.977143
weight of 1 is -0.605485
weight of 2 is -6.444444
weight of 3 is 2.000000
not used!
deny
deny
weight of 0 is 0.484164
weight of 1 is -0.613091
weight of 2 is -6.533333
weight of 3 is 1.000000
not used!
weight of 0 is -0.008910
weight of 1 is -0.613093
weight of 2 is -6.533333
weight of 3 is 0.000000
not used!
weight of 0 is -0.501551
weight of 1 is -0.648338
weight of 2 is -6.533333
weight of 3 is -1.000000
not used!
weight of 0 is -0.994528
weight of 1 is -0.675691
weight of 2 is -7.511111
weight of 3 is -2.000000
not used!
deny
deny
deny
deny
deny
deny
deny
deny
deny
deny
deny
deny
deny
deny
weight of 0 is -1.487169
weight of 1 is -0.714017
weight of 2 is -7.511111
weight of 3 is -3.000000
not used!
deny
deny
deny
deny
deny
deny
deny
deny
deny
deny
weight of 0 is -0.994198
weight of 1 is -0.707489
weight of 2 is -7.066667
weight of 3 is -2.000000
used!
weight of 0 is -0.501226
weight of 1 is -0.700960
weight of 2 is -6.622222
weight of 3 is -1.000000
used!
deny
deny
weight of 0 is -0.008165
weight of 1 is -0.700959
weight of 2 is -6.622222
weight of 3 is 0.000000
used!
weight of 0 is 0.484897
weight of 1 is -0.700958
weight of 2 is -6.622222
weight of 3 is 1.000000
used!
accept
accept
accept
accept
weight of 0 is 0.977959
weight of 1 is -0.693694
weight of 2 is -5.266667
weight of 3 is 2.000000
used!
weight of 0 is 1.471021
weight of 1 is -0.686431
weight of 2 is -3.911111
weight of 3 is 3.000000
used!
weight of 0 is 0.978379
weight of 1 is -0.727687
weight of 2 is -3.911111
weight of 3 is 2.000000
not used!
weight of 0 is 0.485738
weight of 1 is -0.743551
weight of 2 is -3.911111
weight of 3 is 1.000000
not used!
weight of 0 is -0.007094
weight of 1 is -0.759107
weight of 2 is -3.911111
weight of 3 is 0.000000
not used!
deny
deny
accept
accept
weight of 0 is -0.499735
weight of 1 is -0.759121
weight of 2 is -3.911111
weight of 3 is -1.000000
not used!
deny
deny
deny
deny
deny
deny
deny
deny
deny
deny
deny
deny
deny
deny
weight of 0 is -0.006654
weight of 1 is -0.759012
weight of 2 is -2.577778
weight of 3 is 0.000000
used!
weight of 0 is 0.486428
weight of 1 is -0.758903
weight of 2 is -1.244444
weight of 3 is 1.000000
used!
accept
accept
weight of 0 is -0.006421
weight of 1 is -0.759001
weight of 2 is -1.244444
weight of 3 is 0.000000
not used!
accept
accept
weight of 0 is 0.486660
weight of 1 is -0.716077
weight of 2 is -0.177778
weight of 3 is 1.000000
used!
weight of 0 is 0.979741
weight of 1 is -0.673153
weight of 2 is 0.888889
weight of 3 is 2.000000
used!
accept
accept
weight of 0 is 1.472821
weight of 1 is -0.673099
weight of 2 is 2.044444
weight of 3 is 3.000000
used!
weight of 0 is 1.965902
weight of 1 is -0.673045
weight of 2 is 3.200000
weight of 3 is 4.000000
used!
weight of 0 is 1.473261
weight of 1 is -0.679298
weight of 2 is 3.200000
weight of 3 is 3.000000
not used!
warn: ignoring syscall mprotect(...)
weight of 0 is 0.980620
weight of 1 is -0.679355
weight of 2 is 3.200000
weight of 3 is 2.000000
not used!
weight of 0 is 0.487490
weight of 1 is -0.679362
weight of 2 is 3.200000
weight of 3 is 1.000000
not used!
accept
accept
accept
accept
accept
accept
accept
accept
weight of 0 is -0.005151
weight of 1 is -0.702099
weight of 2 is 2.844444
weight of 3 is 0.000000
not used!
accept
accept
deny
deny
accept
accept
deny
deny
weight of 0 is 0.487930
weight of 1 is -0.702075
weight of 2 is 3.555556
weight of 3 is 1.000000
used!
weight of 0 is 0.981012
weight of 1 is -0.702050
weight of 2 is 4.266667
weight of 3 is 2.000000
used!
accept
accept
weight of 0 is 0.476057
weight of 1 is -0.702106
weight of 2 is 4.266667
weight of 3 is 1.000000
not used!
accept
accept
accept
accept
weight of 0 is -0.017089
weight of 1 is -1.686146
weight of 2 is 4.266667
weight of 3 is 0.000000
not used!
weight of 0 is -0.522325
weight of 1 is -2.670243
weight of 2 is 4.266667
weight of 3 is -1.000000
not used!
deny
deny
weight of 0 is -1.014966
weight of 1 is -2.711176
weight of 2 is 4.266667
weight of 3 is -2.000000
not used!
accept
accept
deny
deny
deny
deny
accept
accept
weight of 0 is -1.507607
weight of 1 is -2.770839
weight of 2 is 4.266667
weight of 3 is -3.000000
not used!
deny
deny
deny
deny
deny
deny
deny
deny
weight of 0 is -1.014531
weight of 1 is -2.763138
weight of 2 is 4.288889
weight of 3 is -2.000000
used!
weight of 0 is -0.521455
weight of 1 is -2.755436
weight of 2 is 4.311111
weight of 3 is -1.000000
used!
weight of 0 is -1.014096
weight of 1 is -2.755443
weight of 2 is 3.955556
weight of 3 is -2.000000
not used!
weight of 0 is -1.506737
weight of 1 is -2.755821
weight of 2 is 3.777778
weight of 3 is -3.000000
not used!
deny
deny
deny
deny
deny
deny
accept
accept
deny
deny
deny
deny
accept
accept
weight of 0 is -0.990135
weight of 1 is -2.755623
weight of 2 is 3.955556
weight of 3 is -2.000000
used!
weight of 0 is -0.473532
weight of 1 is -2.755426
weight of 2 is 4.133333
weight of 3 is -1.000000
used!
accept
accept
deny
deny
weight of 0 is -0.966504
weight of 1 is -2.762725
weight of 2 is 4.044444
weight of 3 is -2.000000
not used!
weight of 0 is -1.459566
weight of 1 is -2.769995
weight of 2 is 4.022222
weight of 3 is -3.000000
not used!
warn: ignoring syscall mprotect(...)
deny
deny
deny
deny
deny
deny
weight of 0 is -0.935276
weight of 1 is -0.208990
weight of 2 is 5.088889
weight of 3 is -2.000000
used!
weight of 0 is -0.410986
weight of 1 is 2.352014
weight of 2 is 6.155556
weight of 3 is -1.000000
used!
deny
deny
weight of 0 is 0.113303
weight of 1 is 2.352019
weight of 2 is 6.155556
weight of 3 is 0.000000
used!
weight of 0 is 0.637593
weight of 1 is 2.352024
weight of 2 is 6.155556
weight of 3 is 1.000000
used!
accept
accept
weight of 0 is 1.161883
weight of 1 is 2.352042
weight of 2 is 6.155556
weight of 3 is 2.000000
used!
weight of 0 is 1.686174
weight of 1 is 2.352061
weight of 2 is 6.155556
weight of 3 is 3.000000
used!
accept
accept
accept
accept
weight of 0 is 1.193502
weight of 1 is 2.324453
weight of 2 is 6.155556
weight of 3 is 2.000000
not used!
accept
accept
accept
accept
accept
accept
accept
accept
accept
accept
accept
accept
accept
accept
accept
accept
accept
accept
weight of 0 is 0.700649
weight of 1 is 2.324369
weight of 2 is 6.155556
weight of 3 is 1.000000
not used!
weight of 0 is 0.207569
weight of 1 is 2.324265
weight of 2 is 5.444444
weight of 3 is 0.000000
not used!
weight of 0 is -0.285586
weight of 1 is 2.324183
weight of 2 is 4.200000
weight of 3 is -1.000000
not used!
accept
accept
deny
deny
accept
accept
accept
accept
accept
accept
accept
accept
accept
accept
accept
accept
weight of 0 is -0.801943
weight of 1 is 0.411085
weight of 2 is 3.755556
weight of 3 is -2.000000
not used!
deny
deny
accept
accept
weight of 0 is -1.295093
weight of 1 is -1.502038
weight of 2 is 3.400000
weight of 3 is -3.000000
not used!
weight of 0 is -1.811747
weight of 1 is -1.502057
weight of 2 is 3.400000
weight of 3 is -4.000000
not used!
weight of 0 is -2.316947
weight of 1 is -2.488243
weight of 2 is 3.044444
weight of 3 is -5.000000
not used!
weight of 0 is -2.808727
weight of 1 is -3.562768
weight of 2 is 3.044444
weight of 3 is -6.000000
not used!
weight of 0 is -3.301831
weight of 1 is -3.649469
weight of 2 is 1.800000
weight of 3 is -7.000000
not used!
deny
deny
deny
deny
deny
deny
deny
deny
deny
deny
deny
deny
deny
deny
weight of 0 is -2.785224
weight of 1 is -3.649366
weight of 2 is 2.422222
weight of 3 is -6.000000
used!
weight of 0 is -2.268617
weight of 1 is -3.649264
weight of 2 is 3.044444
weight of 3 is -5.000000
used!
deny
deny
weight of 0 is -1.752010
weight of 1 is -1.744144
weight of 2 is 3.400000
weight of 3 is -4.000000
used!
weight of 0 is -1.235403
weight of 1 is 0.160975
weight of 2 is 3.755556
weight of 3 is -3.000000
used!
accept
accept
accept
accept
warn: ignoring syscall mprotect(...)
weight of 0 is -1.728384
weight of 1 is -0.824806
weight of 2 is 2.600000
weight of 3 is -4.000000
not used!
weight of 0 is -2.221461
weight of 1 is -0.832534
weight of 2 is 1.688889
weight of 3 is -5.000000
not used!
deny
deny
deny
deny
deny
deny
deny
deny
deny
deny
weight of 0 is -1.704786
weight of 1 is 0.501539
weight of 2 is 2.933333
weight of 3 is -4.000000
used!
weight of 0 is -1.188111
weight of 1 is 1.835612
weight of 2 is 4.177778
weight of 3 is -3.000000
used!
deny
deny
weight of 0 is -0.655046
weight of 1 is 1.836106
weight of 2 is 4.533333
weight of 3 is -2.000000
used!
weight of 0 is -0.121982
weight of 1 is 1.836599
weight of 2 is 4.888889
weight of 3 is -1.000000
used!
deny
deny
weight of 0 is 0.411083
weight of 1 is 3.170686
weight of 2 is 4.888889
weight of 3 is 0.000000
used!
weight of 0 is 0.944148
weight of 1 is 4.504773
weight of 2 is 4.888889
weight of 3 is 1.000000
used!
accept
accept
weight of 0 is 1.477213
weight of 1 is 5.838853
weight of 2 is 4.888889
weight of 3 is 2.000000
used!
weight of 0 is 2.010278
weight of 1 is 7.172933
weight of 2 is 4.888889
weight of 3 is 3.000000
used!
accept
accept
weight of 0 is 2.526882
weight of 1 is 7.173126
weight of 2 is 4.888889
weight of 3 is 4.000000
used!
weight of 0 is 3.043487
weight of 1 is 7.173318
weight of 2 is 4.888889
weight of 3 is 5.000000
used!
accept
accept
accept
accept
weight of 0 is 3.560162
weight of 1 is 8.507380
weight of 2 is 5.244444
weight of 3 is 6.000000
used!
weight of 0 is 4.076837
weight of 1 is 9.841441
weight of 2 is 5.600000
weight of 3 is 7.000000
used!
accept
accept
accept
accept
weight of 0 is 4.593444
weight of 1 is 9.841466
weight of 2 is 5.600000
weight of 3 is 8.000000
used!
weight of 0 is 5.110051
weight of 1 is 9.841490
weight of 2 is 5.600000
weight of 3 is 9.000000
used!
accept
accept
accept
accept
weight of 0 is 4.593447
weight of 1 is 9.841483
weight of 2 is 4.533333
weight of 3 is 8.000000
not used!
accept
accept
weight of 0 is 4.076845
weight of 1 is 9.841459
weight of 2 is 3.288889
weight of 3 is 7.000000
not used!
weight of 0 is 3.560167
weight of 1 is 9.841397
weight of 2 is 2.400000
weight of 3 is 6.000000
not used!
accept
accept
accept
accept
accept
accept
accept
accept
accept
accept
accept
accept
accept
accept
accept
accept
accept
accept
weight of 0 is 4.076775
weight of 1 is 9.841405
weight of 2 is 3.644444
weight of 3 is 7.000000
used!
weight of 0 is 4.593383
weight of 1 is 9.841412
weight of 2 is 4.888889
weight of 3 is 8.000000
used!
weight of 0 is 4.069092
weight of 1 is 9.841355
weight of 2 is 4.888889
weight of 3 is 7.000000
not used!
weight of 0 is 3.544505
weight of 1 is 9.841299
weight of 2 is 4.711111
weight of 3 is 6.000000
not used!
weight of 0 is 3.027834
weight of 1 is 9.197008
weight of 2 is 4.533333
weight of 3 is 5.000000
not used!
weight of 0 is 2.511162
weight of 1 is 9.196834
weight of 2 is 4.000000
weight of 3 is 4.000000
not used!
weight of 0 is 1.994544
weight of 1 is 9.195794
weight of 2 is 2.933333
weight of 3 is 3.000000
not used!
accept
accept
accept
accept
accept
accept
weight of 0 is 1.478118
weight of 1 is 9.193609
weight of 2 is 2.911111
weight of 3 is 2.000000
not used!
accept
accept
accept
accept
weight of 0 is 0.985167
weight of 1 is 7.279154
weight of 2 is 2.466667
weight of 3 is 1.000000
not used!
accept
accept
accept
accept
weight of 0 is 0.492212
weight of 1 is 7.273845
weight of 2 is 1.666667
weight of 3 is 0.000000
not used!
accept
accept
weight of 0 is -0.000817
weight of 1 is 7.267950
weight of 2 is 1.200000
weight of 3 is -1.000000
not used!
weight of 0 is -0.493774
weight of 1 is 7.262217
weight of 2 is 0.933333
weight of 3 is -2.000000
not used!
weight of 0 is -0.986807
weight of 1 is 7.256224
weight of 2 is 0.666667
weight of 3 is -3.000000
not used!
deny
deny
deny
deny
weight of 0 is -1.479837
weight of 1 is 7.250286
weight of 2 is -0.400000
weight of 3 is -4.000000
not used!
deny
deny
weight of 0 is -1.972869
weight of 1 is 7.250251
weight of 2 is -1.088889
weight of 3 is -5.000000
not used!
warn: ignoring syscall mprotect(...)
accept
accept
deny
deny
deny
deny
deny
deny
weight of 0 is -1.425631
weight of 1 is 7.250298
weight of 2 is -1.088889
weight of 3 is -4.000000
used!
weight of 0 is -0.878393
weight of 1 is 7.250345
weight of 2 is -1.088889
weight of 3 is -3.000000
used!
deny
deny
weight of 0 is -0.331155
weight of 1 is 7.250364
weight of 2 is -1.088889
weight of 3 is -2.000000
used!
weight of 0 is 0.216083
weight of 1 is 7.250383
weight of 2 is -1.088889
weight of 3 is -1.000000
used!
deny
deny
weight of 0 is 0.763321
weight of 1 is 7.250401
weight of 2 is -1.088889
weight of 3 is 0.000000
used!
weight of 0 is 1.310559
weight of 1 is 7.250420
weight of 2 is -1.088889
weight of 3 is 1.000000
used!
accept
accept
weight of 0 is 1.857797
weight of 1 is 7.250439
weight of 2 is -1.088889
weight of 3 is 2.000000
used!
weight of 0 is 2.405036
weight of 1 is 7.250458
weight of 2 is -1.088889
weight of 3 is 3.000000
used!
accept
accept
accept
accept
accept
accept
accept
accept
accept
accept
accept
accept
accept
accept
accept
accept
accept
accept
accept
accept
accept
accept
accept
accept
weight of 0 is 1.888353
weight of 1 is 7.250406
weight of 2 is -2.155556
weight of 3 is 2.000000
not used!
accept
accept
weight of 0 is 1.395509
weight of 1 is 5.333411
weight of 2 is -3.400000
weight of 3 is 1.000000
not used!
accept
accept
accept
accept
accept
accept
weight of 0 is 0.878835
weight of 1 is 3.999281
weight of 2 is -4.288889
weight of 3 is 0.000000
not used!
weight of 0 is 0.362159
weight of 1 is 3.999213
weight of 2 is -4.644444
weight of 3 is -1.000000
not used!
weight of 0 is -0.154517
weight of 1 is 3.999192
weight of 2 is -4.822222
weight of 3 is -2.000000
not used!
weight of 0 is -0.687583
weight of 1 is 2.665053
weight of 2 is -4.822222
weight of 3 is -3.000000
not used!
weight of 0 is -1.204259
weight of 1 is 1.331109
weight of 2 is -5.533333
weight of 3 is -4.000000
not used!
weight of 0 is -1.728795
weight of 1 is 0.685949
weight of 2 is -6.600000
weight of 3 is -5.000000
not used!
deny
deny
deny
deny
deny
deny
weight of 0 is -1.236154
weight of 1 is 0.701578
weight of 2 is -6.244444
weight of 3 is -4.000000
used!
weight of 0 is -0.743512
weight of 1 is 0.717207
weight of 2 is -5.888889
weight of 3 is -3.000000
used!
weight of 0 is -1.236616
weight of 1 is -1.844549
weight of 2 is -7.133333
weight of 3 is -4.000000
not used!
deny
deny
deny
deny
deny
deny
deny
deny
deny
deny
deny
deny
weight of 0 is -0.720234
weight of 1 is 0.087816
weight of 2 is -7.133333
weight of 3 is -3.000000
used!
weight of 0 is -0.203852
weight of 1 is 2.020182
weight of 2 is -7.133333
weight of 3 is -2.000000
used!
weight of 0 is -0.728186
weight of 1 is -0.542993
weight of 2 is -7.555556
weight of 3 is -3.000000
not used!
deny
deny
deny
deny
weight of 0 is -0.211604
weight of 1 is 0.103120
weight of 2 is -7.555556
weight of 3 is -2.000000
used!
weight of 0 is 0.304978
weight of 1 is 0.749233
weight of 2 is -7.555556
weight of 3 is -1.000000
used!
deny
deny
weight of 0 is 0.821360
weight of 1 is 2.111095
weight of 2 is -7.555556
weight of 3 is 0.000000
used!
weight of 0 is 1.337742
weight of 1 is 3.472958
weight of 2 is -7.555556
weight of 3 is 1.000000
used!
accept
accept
accept
accept
accept
accept
weight of 0 is 0.844755
weight of 1 is 0.917726
weight of 2 is -8.533333
weight of 3 is 0.000000
not used!
weight of 0 is 0.351665
weight of 1 is 0.909457
weight of 2 is -9.688889
weight of 3 is -1.000000
not used!
deny
deny
weight of 0 is -0.141429
weight of 1 is 0.901089
weight of 2 is -10.711111
weight of 3 is -2.000000
not used!
deny
deny
weight of 0 is -0.634419
weight of 1 is 0.892806
weight of 2 is -11.866667
weight of 3 is -3.000000
not used!
weight of 0 is -1.127515
weight of 1 is 0.884345
weight of 2 is -12.088889
weight of 3 is -4.000000
not used!
deny
deny
weight of 0 is -1.620609
weight of 1 is 0.884242
weight of 2 is -13.066667
weight of 3 is -5.000000
not used!
deny
deny
deny
deny
weight of 0 is -1.127968
weight of 1 is 0.884256
weight of 2 is -13.066667
weight of 3 is -4.000000
used!
weight of 0 is -0.635327
weight of 1 is 0.884270
weight of 2 is -13.066667
weight of 3 is -3.000000
used!
weight of 0 is -1.128421
weight of 1 is 0.884247
weight of 2 is -13.733333
weight of 3 is -4.000000
not used!
deny
deny
deny
deny
weight of 0 is -0.635780
weight of 1 is 0.884534
weight of 2 is -13.733333
weight of 3 is -3.000000
used!
weight of 0 is -0.143138
weight of 1 is 0.884820
weight of 2 is -13.733333
weight of 3 is -2.000000
used!
deny
deny
deny
deny
weight of 0 is 0.349503
weight of 1 is 0.884839
weight of 2 is -13.733333
weight of 3 is -1.000000
used!
weight of 0 is 0.842144
weight of 1 is 0.884858
weight of 2 is -13.733333
weight of 3 is 0.000000
used!
deny
deny
weight of 0 is 1.334785
weight of 1 is 0.887134
weight of 2 is -12.666667
weight of 3 is 1.000000
used!
weight of 0 is 1.827427
weight of 1 is 0.889409
weight of 2 is -11.600000
weight of 3 is 2.000000
used!
accept
accept
weight of 0 is 2.320068
weight of 1 is 0.904493
weight of 2 is -11.600000
weight of 3 is 3.000000
used!
weight of 0 is 2.812709
weight of 1 is 0.919577
weight of 2 is -11.600000
weight of 3 is 4.000000
used!
accept
accept
accept
accept
accept
accept
accept
accept
deny
deny
accept
accept
accept
accept
accept
accept
deny
deny
deny
deny
accept
accept
weight of 0 is 2.319560
weight of 1 is -0.997120
weight of 2 is -11.600000
weight of 3 is 3.000000
not used!
deny
deny
accept
accept
accept
accept
accept
accept
deny
deny
accept
accept
deny
deny
accept
accept
accept
accept
deny
deny
weight of 0 is 1.802949
weight of 1 is -0.997145
weight of 2 is -11.955556
weight of 3 is 2.000000
not used!
accept
accept
deny
deny
deny
deny
deny
deny
deny
deny
deny
deny
weight of 0 is 1.286266
weight of 1 is -0.997208
weight of 2 is -13.200000
weight of 3 is 1.000000
not used!
accept
accept
weight of 0 is 0.793138
weight of 1 is -2.914591
weight of 2 is -13.733333
weight of 3 is 0.000000
not used!
weight of 0 is 0.300496
weight of 1 is -2.954221
weight of 2 is -13.733333
weight of 3 is -1.000000
not used!
deny
deny
deny
deny
deny
deny
deny
deny
deny
deny
weight of 0 is 0.793137
weight of 1 is -2.884877
weight of 2 is -13.733333
weight of 3 is 0.000000
used!
weight of 0 is 1.285779
weight of 1 is -2.815533
weight of 2 is -13.733333
weight of 3 is 1.000000
used!
accept
accept
weight of 0 is 1.778420
weight of 1 is -2.815512
weight of 2 is -13.555556
weight of 3 is 2.000000
used!
weight of 0 is 2.271061
weight of 1 is -2.815491
weight of 2 is -13.377778
weight of 3 is 3.000000
used!
deny
deny
deny
deny
deny
deny
deny
deny
deny
deny
accept
accept
deny
deny
accept
accept
accept
accept
weight of 0 is 2.764424
weight of 1 is -2.814567
weight of 2 is -12.111111
weight of 3 is 4.000000
used!
weight of 0 is 3.257788
weight of 1 is -2.813643
weight of 2 is -10.844444
weight of 3 is 5.000000
used!
deny
deny
accept
accept
accept
accept
deny
deny
accept
accept
accept
accept
accept
accept
deny
deny
accept
accept
deny
deny
deny
deny
deny
deny
weight of 0 is 3.805248
weight of 1 is -2.813639
weight of 2 is -9.600000
weight of 3 is 6.000000
used!
weight of 0 is 4.352709
weight of 1 is -2.813636
weight of 2 is -8.355556
weight of 3 is 7.000000
used!
weight of 0 is 3.805465
weight of 1 is -2.813692
weight of 2 is -8.355556
weight of 3 is 6.000000
not used!
accept
accept
weight of 0 is 4.352925
weight of 1 is 1.578174
weight of 2 is -8.266667
weight of 3 is 7.000000
used!
weight of 0 is 4.900386
weight of 1 is 5.970040
weight of 2 is -8.177778
weight of 3 is 8.000000
used!
accept
accept
accept
accept
weight of 0 is 5.447845
weight of 1 is 5.970044
weight of 2 is -6.933333
weight of 3 is 9.000000
used!
weight of 0 is 5.995304
weight of 1 is 5.970047
weight of 2 is -5.688889
weight of 3 is 10.000000
used!
accept
accept
accept
accept
accept
accept
weight of 0 is 5.478624
weight of 1 is 3.460574
weight of 2 is -5.688889
weight of 3 is 9.000000
not used!
accept
accept
weight of 0 is 4.931113
weight of 1 is 0.951044
weight of 2 is -5.688889
weight of 3 is 8.000000
not used!
accept
accept
weight of 0 is 4.398097
weight of 1 is -0.223257
weight of 2 is -6.933333
weight of 3 is 7.000000
not used!
accept
accept
accept
accept
deny
deny
accept
accept
weight of 0 is 3.905456
weight of 1 is -3.506344
weight of 2 is -7.466667
weight of 3 is 6.000000
not used!
accept
accept
accept
accept
weight of 0 is 3.412815
weight of 1 is -3.506952
weight of 2 is -8.000000
weight of 3 is 5.000000
not used!
deny
deny
deny
deny
deny
deny
accept
accept
deny
deny
accept
accept
accept
accept
deny
deny
accept
accept
accept
accept
accept
accept
accept
accept
accept
accept
accept
accept
weight of 0 is 2.920174
weight of 1 is -5.455588
weight of 2 is -8.000000
weight of 3 is 4.000000
not used!
accept
accept
accept
accept
accept
accept
accept
accept
accept
accept
accept
accept
accept
accept
deny
deny
accept
accept
accept
accept
deny
deny
weight of 0 is 2.427533
weight of 1 is -5.456032
weight of 2 is -8.000000
weight of 3 is 3.000000
not used!
accept
accept
weight of 0 is 1.934891
weight of 1 is -5.471137
weight of 2 is -8.000000
weight of 3 is 2.000000
not used!
deny
deny
accept
accept
weight of 0 is 1.442250
weight of 1 is -5.471174
weight of 2 is -8.000000
weight of 3 is 1.000000
not used!
deny
deny
weight of 0 is 0.949609
weight of 1 is -5.471454
weight of 2 is -8.177778
weight of 3 is 0.000000
not used!
accept
accept
deny
deny
accept
accept
weight of 0 is 0.456968
weight of 1 is -5.472205
weight of 2 is -8.177778
weight of 3 is -1.000000
not used!
deny
deny
deny
deny
weight of 0 is -0.035674
weight of 1 is -5.485619
weight of 2 is -8.177778
weight of 3 is -2.000000
not used!
deny
deny
deny
deny
weight of 0 is -0.528315
weight of 1 is -5.485631
weight of 2 is -8.355556
weight of 3 is -3.000000
not used!
deny
deny
weight of 0 is -0.035674
weight of 1 is -5.485293
weight of 2 is -8.355556
weight of 3 is -2.000000
used!
weight of 0 is 0.456967
weight of 1 is -5.484955
weight of 2 is -8.355556
weight of 3 is -1.000000
used!
deny
deny
weight of 0 is 0.949609
weight of 1 is -5.484936
weight of 2 is -8.355556
weight of 3 is 0.000000
used!
weight of 0 is 1.442250
weight of 1 is -5.484917
weight of 2 is -8.355556
weight of 3 is 1.000000
used!
accept
accept
weight of 0 is 1.934891
weight of 1 is -5.484898
weight of 2 is -8.355556
weight of 3 is 2.000000
used!
weight of 0 is 2.427533
weight of 1 is -5.484880
weight of 2 is -8.355556
weight of 3 is 3.000000
used!
deny
deny
accept
accept
weight of 0 is 1.935621
weight of 1 is -5.544323
weight of 2 is -8.355556
weight of 3 is 2.000000
not used!
deny
deny
deny
deny
accept
accept
deny
deny
deny
deny
weight of 0 is 1.442980
weight of 1 is -5.544337
weight of 2 is -8.355556
weight of 3 is 1.000000
not used!
accept
accept
deny
deny
weight of 0 is 1.990363
weight of 1 is -1.088492
weight of 2 is -7.644444
weight of 3 is 2.000000
used!
weight of 0 is 2.537746
weight of 1 is 3.367353
weight of 2 is -6.933333
weight of 3 is 3.000000
used!
accept
accept
accept
accept
weight of 0 is 3.085130
weight of 1 is 4.509000
weight of 2 is -6.933333
weight of 3 is 4.000000
used!
weight of 0 is 3.632513
weight of 1 is 5.650647
weight of 2 is -6.933333
weight of 3 is 5.000000
used!
accept
accept
accept
accept
accept
accept
accept
accept
accept
accept
accept
accept
accept
accept
accept
accept
accept
accept
accept
accept
accept
accept
accept
accept
accept
accept
weight of 0 is 3.139149
weight of 1 is 4.699390
weight of 2 is -6.933333
weight of 3 is 4.000000
not used!
accept
accept
accept
accept
accept
accept
accept
accept
accept
accept
weight of 0 is 2.606021
weight of 1 is 3.983706
weight of 2 is -7.088889
weight of 3 is 3.000000
not used!
accept
accept
accept
accept
weight of 0 is 2.112516
weight of 1 is 3.983611
weight of 2 is -7.088889
weight of 3 is 2.000000
not used!
accept
accept
weight of 0 is 1.565056
weight of 1 is 3.983553
weight of 2 is -8.422222
weight of 3 is 1.000000
not used!
accept
accept
accept
accept
weight of 0 is 1.072654
weight of 1 is -0.498380
weight of 2 is -8.422222
weight of 3 is 0.000000
not used!
weight of 0 is 0.567607
weight of 1 is -1.538579
weight of 2 is -8.644444
weight of 3 is -1.000000
not used!
deny
deny
deny
deny
deny
deny
weight of 0 is 1.100977
weight of 1 is -0.397571
weight of 2 is -8.644444
weight of 3 is 0.000000
used!
weight of 0 is 1.634348
weight of 1 is 0.743437
weight of 2 is -8.644444
weight of 3 is 1.000000
used!
accept
accept
weight of 0 is 2.167719
weight of 1 is 0.743458
weight of 2 is -8.466667
weight of 3 is 2.000000
used!
weight of 0 is 2.701091
weight of 1 is 0.743479
weight of 2 is -8.288889
weight of 3 is 3.000000
used!
weight of 0 is 2.184530
weight of 1 is -1.771972
weight of 2 is -8.466667
weight of 3 is 2.000000
not used!
accept
accept
accept
accept
weight of 0 is 1.637068
weight of 1 is -1.772027
weight of 2 is -8.466667
weight of 3 is 1.000000
not used!
accept
accept
accept
accept
deny
deny
deny
deny
deny
deny
deny
deny
deny
deny
weight of 0 is 2.170443
weight of 1 is -0.631188
weight of 2 is -8.466667
weight of 3 is 2.000000
used!
weight of 0 is 2.703817
weight of 1 is 0.509650
weight of 2 is -8.466667
weight of 3 is 3.000000
used!
accept
accept
weight of 0 is 3.237191
weight of 1 is 1.650487
weight of 2 is -8.288889
weight of 3 is 4.000000
used!
weight of 0 is 3.770566
weight of 1 is 2.791323
weight of 2 is -8.111111
weight of 3 is 5.000000
used!
accept
accept
weight of 0 is 4.317956
weight of 1 is 3.932219
weight of 2 is -8.111111
weight of 3 is 6.000000
used!
weight of 0 is 4.865346
weight of 1 is 5.073114
weight of 2 is -8.111111
weight of 3 is 7.000000
used!
accept
accept
accept
accept
accept
accept
accept
accept
accept
accept
accept
accept
accept
accept
accept
accept
accept
accept
accept
accept
accept
accept
accept
accept
accept
accept
accept
accept
accept
accept
accept
accept
accept
accept
weight of 0 is 4.317875
weight of 1 is 5.073057
weight of 2 is -8.111111
weight of 3 is 6.000000
not used!
weight of 0 is 3.770404
weight of 1 is 5.073039
weight of 2 is -8.111111
weight of 3 is 5.000000
not used!
accept
accept
weight of 0 is 3.277763
weight of 1 is 5.073020
weight of 2 is -8.111111
weight of 3 is 4.000000
not used!
accept
accept
weight of 0 is 2.785122
weight of 1 is 5.069657
weight of 2 is -8.111111
weight of 3 is 3.000000
not used!
accept
accept
weight of 0 is 2.292481
weight of 1 is 5.069652
weight of 2 is -8.111111
weight of 3 is 2.000000
not used!
accept
accept
weight of 0 is 1.799839
weight of 1 is 5.069645
weight of 2 is -8.111111
weight of 3 is 1.000000
not used!
accept
accept
accept
accept
accept
accept
accept
accept
accept
accept
accept
accept
accept
accept
weight of 0 is 1.307198
weight of 1 is 5.069626
weight of 2 is -8.111111
weight of 3 is 0.000000
not used!
deny
deny
weight of 0 is 0.814557
weight of 1 is 5.069617
weight of 2 is -8.111111
weight of 3 is -1.000000
not used!
accept
accept
accept
accept
weight of 0 is 0.281199
weight of 1 is 5.069603
weight of 2 is -8.111111
weight of 3 is -2.000000
not used!
deny
deny
deny
deny
deny
deny
weight of 0 is 0.814588
weight of 1 is 5.069659
weight of 2 is -7.755556
weight of 3 is -1.000000
used!
weight of 0 is 1.347978
weight of 1 is 5.069716
weight of 2 is -7.400000
weight of 3 is 0.000000
used!
accept
accept
accept
accept
weight of 0 is 1.881367
weight of 1 is 5.069730
weight of 2 is -7.400000
weight of 3 is 1.000000
used!
weight of 0 is 2.414757
weight of 1 is 5.069744
weight of 2 is -7.400000
weight of 3 is 2.000000
used!
accept
accept
accept
accept
accept
accept
accept
accept
accept
accept
accept
accept
accept
accept
accept
accept
accept
accept
accept
accept
accept
accept
accept
accept
accept
accept
accept
accept
accept
accept
accept
accept
accept
accept
accept
accept
accept
accept
accept
accept
accept
accept
accept
accept
accept
accept
accept
accept
accept
accept
accept
accept
accept
accept
accept
accept
accept
accept
accept
accept
accept
accept
accept
accept
accept
accept
accept
accept
accept
accept
deny
deny
accept
accept
accept
accept
accept
accept
accept
accept
accept
accept
accept
accept
weight of 0 is 1.867366
weight of 1 is 3.928980
weight of 2 is -7.400000
weight of 3 is 1.000000
not used!
accept
accept
accept
accept
accept
accept
deny
deny
accept
accept
accept
accept
accept
accept
weight of 0 is 1.319973
weight of 1 is 2.788360
weight of 2 is -7.933333
weight of 3 is 0.000000
not used!
accept
accept
accept
accept
accept
accept
accept
accept
accept
accept
accept
accept
accept
accept
accept
accept
accept
accept
accept
accept
accept
accept
accept
accept
accept
accept
accept
accept
accept
accept
accept
accept
accept
accept
accept
accept
accept
accept
accept
accept
accept
accept
weight of 0 is 0.786586
weight of 1 is 1.648085
weight of 2 is -7.933333
weight of 3 is -1.000000
not used!
accept
accept
deny
deny
deny
deny
deny
deny
weight of 0 is 1.334001
weight of 1 is 2.787035
weight of 2 is -7.222222
weight of 3 is 0.000000
used!
weight of 0 is 1.881416
weight of 1 is 3.925986
weight of 2 is -6.511111
weight of 3 is 1.000000
used!
accept
accept
weight of 0 is 2.428832
weight of 1 is 3.926005
weight of 2 is -5.800000
weight of 3 is 2.000000
used!
weight of 0 is 2.976247
weight of 1 is 3.926023
weight of 2 is -5.088889
weight of 3 is 3.000000
used!
accept
accept
accept
accept
accept
accept
accept
accept
accept
accept
accept
accept
accept
accept
accept
accept
accept
accept
accept
accept
accept
accept
accept
accept
accept
accept
accept
accept
accept
accept
accept
accept
accept
accept
accept
accept
accept
accept
accept
accept
accept
accept
accept
accept
accept
accept
accept
accept
accept
accept
accept
accept
accept
accept
accept
accept
accept
accept
accept
accept
accept
accept
accept
accept
accept
accept
weight of 0 is 2.428845
weight of 1 is 2.786523
weight of 2 is -5.088889
weight of 3 is 2.000000
not used!
accept
accept
accept
accept
accept
accept
accept
accept
weight of 0 is 1.881440
weight of 1 is 1.647079
weight of 2 is -5.088889
weight of 3 is 1.000000
not used!
accept
accept
accept
accept
weight of 0 is 1.334034
weight of 1 is 0.507633
weight of 2 is -5.266667
weight of 3 is 0.000000
not used!
accept
accept
accept
accept
accept
accept
accept
accept
accept
accept
accept
accept
accept
accept
accept
accept
deny
deny
accept
accept
accept
accept
accept
accept
deny
deny
accept
accept
accept
accept
deny
deny
accept
accept
accept
accept
accept
accept
accept
accept
accept
accept
deny
deny
deny
deny
weight of 0 is 1.881464
weight of 1 is 1.645605
weight of 2 is -4.733333
weight of 3 is 1.000000
used!
weight of 0 is 2.428893
weight of 1 is 2.783576
weight of 2 is -4.200000
weight of 3 is 2.000000
used!
accept
accept
accept
accept
accept
accept
accept
accept
accept
accept
accept
accept
accept
accept
accept
accept
weight of 0 is 1.881479
weight of 1 is 1.644635
weight of 2 is -4.200000
weight of 3 is 1.000000
not used!
accept
accept
accept
accept
accept
accept
accept
accept
accept
accept
weight of 0 is 1.334062
weight of 1 is 0.505750
weight of 2 is -4.200000
weight of 3 is 0.000000
not used!
accept
accept
accept
accept
accept
accept
accept
accept
accept
accept
accept
accept
accept
accept
accept
accept
accept
accept
accept
accept
accept
accept
accept
accept
accept
accept
accept
accept
deny
deny
accept
accept
deny
deny
accept
accept
weight of 0 is 0.800631
weight of 1 is 0.505693
weight of 2 is -4.200000
weight of 3 is -1.000000
not used!
deny
deny
deny
deny
deny
deny
weight of 0 is 0.253210
weight of 1 is -0.632954
weight of 2 is -4.911111
weight of 3 is -2.000000
not used!
deny
deny
deny
deny
deny
deny
deny
deny
deny
deny
weight of 0 is 0.745851
weight of 1 is 2.679843
weight of 2 is -4.911111
weight of 3 is -1.000000
used!
weight of 0 is 1.238493
weight of 1 is 5.992641
weight of 2 is -4.911111
weight of 3 is 0.000000
used!
accept
accept
weight of 0 is 1.731134
weight of 1 is 9.285345
weight of 2 is -4.911111
weight of 3 is 1.000000
used!
weight of 0 is 2.223775
weight of 1 is 12.578050
weight of 2 is -4.911111
weight of 3 is 2.000000
used!
deny
deny
accept
accept
accept
accept
accept
accept
accept
accept
accept
accept
deny
deny
deny
deny
accept
accept
accept
accept
accept
accept
accept
accept
accept
accept
accept
accept
deny
deny
accept
accept
accept
accept
accept
accept
accept
accept
weight of 0 is 1.676348
weight of 1 is 11.439994
weight of 2 is -4.911111
weight of 3 is 1.000000
not used!
accept
accept
accept
accept
accept
accept
weight of 0 is 1.142902
weight of 1 is 10.301966
weight of 2 is -5.088889
weight of 3 is 0.000000
not used!
accept
accept
accept
accept
weight of 0 is 1.676362
weight of 1 is 11.441248
weight of 2 is -5.088889
weight of 3 is 1.000000
used!
weight of 0 is 2.209822
weight of 1 is 12.580530
weight of 2 is -5.088889
weight of 3 is 2.000000
used!
accept
accept
accept
accept
accept
accept
accept
accept
accept
accept
accept
accept
accept
accept
deny
deny
accept
accept
accept
accept
accept
accept
deny
deny
accept
accept
deny
deny
accept
accept
accept
accept
accept
accept
accept
accept
accept
accept
deny
deny
accept
accept
accept
accept
accept
accept
accept
accept
accept
accept
accept
accept
deny
deny
accept
accept
accept
accept
accept
accept
accept
accept
accept
accept
weight of 0 is 1.662380
weight of 1 is 11.441981
weight of 2 is -5.266667
weight of 3 is 1.000000
not used!
accept
accept
weight of 0 is 1.114930
weight of 1 is 10.302830
weight of 2 is -5.444444
weight of 3 is 0.000000
not used!
deny
deny
deny
deny
accept
accept
deny
deny
accept
accept
accept
accept
deny
deny
accept
accept
deny
deny
accept
accept
deny
deny
deny
deny
accept
accept
weight of 0 is 0.567478
weight of 1 is 9.163833
weight of 2 is -5.444444
weight of 3 is -1.000000
not used!
accept
accept
weight of 0 is 0.020025
weight of 1 is 9.163774
weight of 2 is -5.622222
weight of 3 is -2.000000
not used!
accept
accept
deny
deny
deny
deny
weight of 0 is -0.527429
weight of 1 is 9.163725
weight of 2 is -5.800000
weight of 3 is -3.000000
not used!
deny
deny
deny
deny
deny
deny
weight of 0 is -1.074886
weight of 1 is 9.163675
weight of 2 is -5.977778
weight of 3 is -4.000000
not used!
deny
deny
deny
deny
deny
deny
deny
deny
deny
deny
deny
deny
deny
deny
deny
deny
deny
deny
deny
deny
accept
accept
accept
accept
deny
deny
deny
deny
deny
deny
deny
deny
weight of 0 is -1.567527
weight of 1 is 9.163657
weight of 2 is -5.977778
weight of 3 is -5.000000
not used!
accept
accept
accept
accept
deny
deny
weight of 0 is -2.100844
weight of 1 is 5.852806
weight of 2 is -6.444444
weight of 3 is -6.000000
not used!
deny
deny
accept
accept
accept
accept
deny
deny
weight of 0 is -2.593485
weight of 1 is 2.542011
weight of 2 is -6.444444
weight of 3 is -7.000000
not used!
deny
deny
deny
deny
deny
deny
deny
deny
deny
deny
weight of 0 is -2.060193
weight of 1 is 2.556883
weight of 2 is -6.377778
weight of 3 is -6.000000
used!
weight of 0 is -1.526902
weight of 1 is 2.571755
weight of 2 is -6.311111
weight of 3 is -5.000000
used!
accept
accept
accept
accept
deny
deny
deny
deny
deny
deny
weight of 0 is -0.993442
weight of 1 is 2.608456
weight of 2 is -6.311111
weight of 3 is -4.000000
used!
weight of 0 is -0.459982
weight of 1 is 2.645157
weight of 2 is -6.311111
weight of 3 is -3.000000
used!
deny
deny
weight of 0 is 0.073364
weight of 1 is 2.654557
weight of 2 is -5.333333
weight of 3 is -2.000000
used!
weight of 0 is 0.606711
weight of 1 is 2.663956
weight of 2 is -4.355556
weight of 3 is -1.000000
used!
deny
deny
deny
deny
deny
deny
deny
deny
deny
deny
deny
deny
deny
deny
deny
deny
deny
deny
deny
deny
deny
deny
deny
deny
deny
deny
weight of 0 is 0.073669
weight of 1 is 0.399664
weight of 2 is -4.355556
weight of 3 is -2.000000
not used!
deny
deny
weight of 0 is 0.606964
weight of 1 is 0.415397
weight of 2 is -3.488889
weight of 3 is -1.000000
used!
weight of 0 is 1.140259
weight of 1 is 0.431130
weight of 2 is -2.622222
weight of 3 is 0.000000
used!
weight of 0 is 0.607216
weight of 1 is -2.857500
weight of 2 is -3.955556
weight of 3 is -1.000000
not used!
deny
deny
weight of 0 is 0.074155
weight of 1 is -2.858918
weight of 2 is -4.488889
weight of 3 is -2.000000
not used!
deny
deny
deny
deny
deny
deny
deny
deny
deny
deny
deny
deny
weight of 0 is 0.607450
weight of 1 is -2.858914
weight of 2 is -4.488889
weight of 3 is -1.000000
used!
weight of 0 is 1.140746
weight of 1 is -2.858911
weight of 2 is -4.488889
weight of 3 is 0.000000
used!
deny
deny
weight of 0 is 0.648104
weight of 1 is -2.858939
weight of 2 is -4.666667
weight of 3 is -1.000000
not used!
weight of 0 is 0.155463
weight of 1 is -2.859519
weight of 2 is -4.666667
weight of 3 is -2.000000
not used!
deny
deny
deny
deny
deny
deny
weight of 0 is 0.688926
weight of 1 is -2.825645
weight of 2 is -4.488889
weight of 3 is -1.000000
used!
weight of 0 is 1.222388
weight of 1 is -2.791772
weight of 2 is -4.311111
weight of 3 is 0.000000
used!
weight of 0 is 0.729747
weight of 1 is -2.792406
weight of 2 is -4.311111
weight of 3 is -1.000000
not used!
deny
deny
deny
deny
deny
deny
weight of 0 is 1.263042
weight of 1 is -2.783574
weight of 2 is -3.888889
weight of 3 is 0.000000
used!
weight of 0 is 1.796339
weight of 1 is -2.774742
weight of 2 is -3.466667
weight of 3 is 1.000000
used!
weight of 0 is 1.303697
weight of 1 is -2.776870
weight of 2 is -3.822222
weight of 3 is 0.000000
not used!
deny
deny
deny
deny
deny
deny
weight of 0 is 0.770638
weight of 1 is -6.066688
weight of 2 is -3.911111
weight of 3 is -1.000000
not used!
weight of 0 is 0.277996
weight of 1 is -9.356403
weight of 2 is -4.977778
weight of 3 is -2.000000
not used!
deny
deny
deny
deny
deny
deny
weight of 0 is -0.214645
weight of 1 is -9.356445
weight of 2 is -4.977778
weight of 3 is -3.000000
not used!
deny
deny
deny
deny
deny
deny
deny
deny
deny
deny
weight of 0 is 0.318816
weight of 1 is -9.322674
weight of 2 is -4.977778
weight of 3 is -2.000000
used!
weight of 0 is 0.852276
weight of 1 is -9.288903
weight of 2 is -4.977778
weight of 3 is -1.000000
used!
deny
deny
deny
deny
deny
deny
deny
deny
weight of 0 is 0.318815
weight of 1 is -10.426209
weight of 2 is -5.155556
weight of 3 is -2.000000
not used!
deny
deny
weight of 0 is -0.228615
weight of 1 is -11.563598
weight of 2 is -5.866667
weight of 3 is -3.000000
not used!
deny
deny
deny
deny
weight of 0 is -0.776046
weight of 1 is -12.701018
weight of 2 is -5.866667
weight of 3 is -4.000000
not used!
deny
deny
deny
deny
deny
deny
weight of 0 is -1.309393
weight of 1 is -13.847695
weight of 2 is -6.222222
weight of 3 is -5.000000
not used!
weight of 0 is -1.842568
weight of 1 is -13.861711
weight of 2 is -6.488889
weight of 3 is -6.000000
not used!
deny
deny
weight of 0 is -2.375849
weight of 1 is -13.861712
weight of 2 is -6.488889
weight of 3 is -7.000000
not used!
deny
deny
weight of 0 is -1.842386
weight of 1 is -13.824708
weight of 2 is -6.488889
weight of 3 is -6.000000
used!
weight of 0 is -1.308923
weight of 1 is -13.787704
weight of 2 is -6.488889
weight of 3 is -5.000000
used!
deny
deny
deny
deny
weight of 0 is -1.841967
weight of 1 is -17.020077
weight of 2 is -6.666667
weight of 3 is -6.000000
not used!
deny
deny
deny
deny
weight of 0 is -2.375041
weight of 1 is -17.022092
weight of 2 is -6.755556
weight of 3 is -7.000000
not used!
deny
deny
weight of 0 is -2.908236
weight of 1 is -17.034578
weight of 2 is -6.844444
weight of 3 is -8.000000
not used!
deny
deny
weight of 0 is -3.441518
weight of 1 is -17.039500
weight of 2 is -6.933333
weight of 3 is -9.000000
not used!
deny
deny
deny
deny
weight of 0 is -2.908055
weight of 1 is -17.004152
weight of 2 is -6.755556
weight of 3 is -8.000000
used!
weight of 0 is -2.374592
weight of 1 is -16.968804
weight of 2 is -6.577778
weight of 3 is -7.000000
used!
weight of 0 is -2.879815
weight of 1 is -19.253275
weight of 2 is -7.111111
weight of 3 is -8.000000
not used!
deny
deny
weight of 0 is -3.396452
weight of 1 is -20.182791
weight of 2 is -7.377778
weight of 3 is -9.000000
not used!
deny
deny
deny
deny
weight of 0 is -3.929504
weight of 1 is -21.518819
weight of 2 is -8.266667
weight of 3 is -10.000000
not used!
deny
deny
deny
deny
weight of 0 is -4.462854
weight of 1 is -21.543271
weight of 2 is -8.844444
weight of 3 is -11.000000
not used!
deny
deny
weight of 0 is -4.996068
weight of 1 is -21.554362
weight of 2 is -8.933333
weight of 3 is -12.000000
not used!
deny
deny
weight of 0 is -5.501297
weight of 1 is -23.834542
weight of 2 is -10.000000
weight of 3 is -13.000000
not used!
deny
deny
weight of 0 is -6.006532
weight of 1 is -23.835078
weight of 2 is -10.355556
weight of 3 is -14.000000
not used!
deny
deny
weight of 0 is -6.539584
weight of 1 is -26.099294
weight of 2 is -11.511111
weight of 3 is -15.000000
not used!
weight of 0 is -7.072665
weight of 1 is -26.101615
weight of 2 is -12.044444
weight of 3 is -16.000000
not used!
deny
deny
weight of 0 is -7.605998
weight of 1 is -26.101616
weight of 2 is -12.044444
weight of 3 is -17.000000
not used!
deny
deny
deny
deny
deny
deny
weight of 0 is -8.099332
weight of 1 is -29.357983
weight of 2 is -13.111111
weight of 3 is -18.000000
not used!
deny
deny
weight of 0 is -8.592664
weight of 1 is -29.358222
weight of 2 is -13.822222
weight of 3 is -19.000000
not used!
deny
deny
weight of 0 is -9.086011
weight of 1 is -29.359437
weight of 2 is -14.088889
weight of 3 is -20.000000
not used!
deny
deny
deny
deny
deny
deny
weight of 0 is -8.552550
weight of 1 is -26.023180
weight of 2 is -14.088889
weight of 3 is -19.000000
used!
weight of 0 is -8.019088
weight of 1 is -22.686923
weight of 2 is -14.088889
weight of 3 is -18.000000
used!
deny
deny
deny
deny
deny
deny
weight of 0 is -7.485778
weight of 1 is -22.674138
weight of 2 is -13.777778
weight of 3 is -17.000000
used!
weight of 0 is -6.952468
weight of 1 is -22.661353
weight of 2 is -13.466667
weight of 3 is -16.000000
used!
deny
deny
deny
deny
deny
deny
weight of 0 is -7.485513
weight of 1 is -25.892271
weight of 2 is -14.711111
weight of 3 is -17.000000
not used!
deny
deny
deny
deny
weight of 0 is -7.978013
weight of 1 is -29.192160
weight of 2 is -14.711111
weight of 3 is -18.000000
not used!
deny
deny
deny
deny
deny
deny
weight of 0 is -8.511366
weight of 1 is -32.507554
weight of 2 is -15.822222
weight of 3 is -19.000000
not used!
deny
deny
deny
deny
deny
deny
weight of 0 is -9.044651
weight of 1 is -32.509405
weight of 2 is -15.911111
weight of 3 is -20.000000
not used!
deny
deny
weight of 0 is -9.549878
weight of 1 is -34.793490
weight of 2 is -17.244444
weight of 3 is -21.000000
not used!
deny
deny
deny
deny
weight of 0 is -10.082919
weight of 1 is -37.056489
weight of 2 is -17.777778
weight of 3 is -22.000000
not used!
deny
deny
deny
deny
deny
deny
weight of 0 is -10.616004
weight of 1 is -37.058993
weight of 2 is -17.866667
weight of 3 is -23.000000
not used!
deny
deny
weight of 0 is -11.149291
weight of 1 is -37.070666
weight of 2 is -17.866667
weight of 3 is -24.000000
not used!
deny
deny
deny
deny
deny
deny
deny
deny
weight of 0 is -10.615827
weight of 1 is -37.036089
weight of 2 is -17.688889
weight of 3 is -23.000000
used!
weight of 0 is -10.082364
weight of 1 is -37.001512
weight of 2 is -17.511111
weight of 3 is -22.000000
used!
deny
deny
deny
deny
deny
deny
deny
deny
deny
deny
deny
deny
deny
deny
deny
deny
deny
deny
deny
deny
deny
deny
deny
deny
deny
deny
deny
deny
weight of 0 is -9.548902
weight of 1 is -36.964764
weight of 2 is -17.511111
weight of 3 is -21.000000
used!
weight of 0 is -9.015439
weight of 1 is -36.928016
weight of 2 is -17.511111
weight of 3 is -20.000000
used!
deny
deny
weight of 0 is -9.548479
weight of 1 is -40.160088
weight of 2 is -17.511111
weight of 3 is -21.000000
not used!
deny
deny
deny
deny
deny
deny
deny
deny
deny
deny
weight of 0 is -10.041810
weight of 1 is -43.413192
weight of 2 is -17.688889
weight of 3 is -22.000000
not used!
deny
deny
weight of 0 is -9.508490
weight of 1 is -43.409651
weight of 2 is -17.222222
weight of 3 is -21.000000
used!
weight of 0 is -8.975169
weight of 1 is -43.406109
weight of 2 is -16.755556
weight of 3 is -20.000000
used!
deny
deny
deny
deny
deny
deny
deny
deny
weight of 0 is -9.467677
weight of 1 is -46.709600
weight of 2 is -17.377778
weight of 3 is -21.000000
not used!
deny
deny
deny
deny
weight of 0 is -10.000761
weight of 1 is -50.015090
weight of 2 is -18.000000
weight of 3 is -22.000000
not used!
deny
deny
weight of 0 is -9.467297
weight of 1 is -49.989558
weight of 2 is -18.000000
weight of 3 is -21.000000
used!
weight of 0 is -8.933832
weight of 1 is -49.964026
weight of 2 is -18.000000
weight of 3 is -20.000000
used!
deny
deny
deny
deny
deny
deny
deny
deny
deny
deny
deny
deny
weight of 0 is -8.400368
weight of 1 is -49.931081
weight of 2 is -17.822222
weight of 3 is -19.000000
used!
weight of 0 is -7.866903
weight of 1 is -49.898135
weight of 2 is -17.644444
weight of 3 is -18.000000
used!
deny
deny
deny
deny
deny
deny
deny
deny
weight of 0 is -8.399943
weight of 1 is -53.130207
weight of 2 is -18.000000
weight of 3 is -19.000000
not used!
deny
deny
deny
deny
deny
deny
weight of 0 is -7.866872
weight of 1 is -53.121202
weight of 2 is -17.111111
weight of 3 is -18.000000
used!
weight of 0 is -7.333801
weight of 1 is -53.112197
weight of 2 is -16.222222
weight of 3 is -17.000000
used!
deny
deny
deny
deny
deny
deny
deny
deny
deny
deny
deny
deny
deny
deny
deny
deny
deny
deny
deny
deny
deny
deny
deny
deny
deny
deny
weight of 0 is -6.800339
weight of 1 is -53.088206
weight of 2 is -16.222222
weight of 3 is -16.000000
used!
weight of 0 is -6.266876
weight of 1 is -53.064214
weight of 2 is -16.222222
weight of 3 is -15.000000
used!
deny
deny
weight of 0 is -5.733546
weight of 1 is -53.050121
weight of 2 is -15.200000
weight of 3 is -14.000000
used!
weight of 0 is -5.200217
weight of 1 is -53.036027
weight of 2 is -14.177778
weight of 3 is -13.000000
used!
deny
deny
deny
deny
deny
deny
deny
deny
deny
deny
deny
deny
weight of 0 is -4.666752
weight of 1 is -53.022475
weight of 2 is -14.177778
weight of 3 is -12.000000
used!
weight of 0 is -4.133287
weight of 1 is -53.008922
weight of 2 is -14.177778
weight of 3 is -11.000000
used!
deny
deny
deny
deny
deny
deny
deny
deny
deny
deny
deny
deny
deny
deny
deny
deny
deny
deny
weight of 0 is -3.599822
weight of 1 is -52.974276
weight of 2 is -14.000000
weight of 3 is -10.000000
used!
weight of 0 is -3.066357
weight of 1 is -52.939630
weight of 2 is -13.822222
weight of 3 is -9.000000
used!
deny
deny
deny
deny
deny
deny
deny
deny
deny
deny
deny
deny
deny
deny
deny
deny
deny
deny
deny
deny
deny
deny
deny
deny
deny
deny
deny
deny
weight of 0 is -2.532893
weight of 1 is -52.905225
weight of 2 is -13.822222
weight of 3 is -8.000000
used!
weight of 0 is -1.999430
weight of 1 is -52.870819
weight of 2 is -13.822222
weight of 3 is -7.000000
used!
deny
deny
deny
deny
deny
deny
deny
deny
deny
deny
deny
deny
deny
deny
deny
deny
deny
deny
deny
deny
deny
deny
deny
deny
weight of 0 is -1.465964
weight of 1 is -52.835538
weight of 2 is -13.822222
weight of 3 is -6.000000
used!
weight of 0 is -0.932499
weight of 1 is -52.800256
weight of 2 is -13.822222
weight of 3 is -5.000000
used!
deny
deny
deny
deny
deny
deny
deny
deny
deny
deny
deny
deny
weight of 0 is -0.399033
weight of 1 is -52.766888
weight of 2 is -13.644444
weight of 3 is -4.000000
used!
weight of 0 is 0.134433
weight of 1 is -52.733519
weight of 2 is -13.466667
weight of 3 is -3.000000
used!
deny
deny
deny
deny
deny
deny
deny
deny
deny
deny
weight of 0 is 0.667783
weight of 1 is -52.726598
weight of 2 is -13.311111
weight of 3 is -2.000000
used!
weight of 0 is 1.201132
weight of 1 is -52.719676
weight of 2 is -13.155556
weight of 3 is -1.000000
used!
deny
deny
deny
deny
deny
deny
deny
deny
deny
deny
deny
deny
weight of 0 is 1.734596
weight of 1 is -52.684653
weight of 2 is -13.155556
weight of 3 is 0.000000
used!
weight of 0 is 2.268061
weight of 1 is -52.649630
weight of 2 is -13.155556
weight of 3 is 1.000000
used!
deny
deny
deny
deny
deny
deny
weight of 0 is 2.801412
weight of 1 is -52.649626
weight of 2 is -13.155556
weight of 3 is 2.000000
used!
weight of 0 is 3.334763
weight of 1 is -52.649622
weight of 2 is -13.155556
weight of 3 is 3.000000
used!
deny
deny
accept
accept
accept
accept
accept
accept
accept
accept
accept
accept
deny
deny
accept
accept
accept
accept
weight of 0 is 3.868229
weight of 1 is -52.633978
weight of 2 is -13.155556
weight of 3 is 4.000000
used!
weight of 0 is 4.401695
weight of 1 is -52.618335
weight of 2 is -13.155556
weight of 3 is 5.000000
used!
deny
deny
deny
deny
deny
deny
deny
deny
deny
deny
deny
deny
accept
accept
accept
accept
accept
accept
deny
deny
deny
deny
deny
deny
accept
accept
deny
deny
deny
deny
accept
accept
accept
accept
deny
deny
accept
accept
deny
deny
deny
deny
accept
accept
deny
deny
accept
accept
deny
deny
accept
accept
deny
deny
deny
deny
deny
deny
deny
deny
deny
deny
deny
deny
deny
deny
deny
deny
deny
deny
deny
deny
accept
accept
deny
deny
deny
deny
deny
deny
accept
accept
deny
deny
deny
deny
deny
deny
deny
deny
deny
deny
accept
accept
accept
accept
deny
deny
accept
accept
deny
deny
accept
accept
deny
deny
deny
deny
deny
deny
accept
accept
deny
deny
deny
deny
accept
accept
deny
deny
accept
accept
deny
deny
accept
accept
warn: ignoring syscall mprotect(...)
deny
deny
accept
accept
accept
accept
accept
accept
deny
deny
deny
deny
deny
deny
deny
deny
accept
accept
accept
accept
accept
accept
deny
deny
deny
deny
accept
accept
deny
deny
deny
deny
deny
deny
deny
deny
deny
deny
accept
accept
deny
deny
deny
deny
deny
deny
deny
deny
weight of 0 is 3.868633
weight of 1 is -52.619828
weight of 2 is -13.244444
weight of 3 is 4.000000
not used!
deny
deny
weight of 0 is 3.335443
weight of 1 is -52.632474
weight of 2 is -13.511111
weight of 3 is 3.000000
not used!
accept
accept
weight of 0 is 2.802088
weight of 1 is -52.643783
weight of 2 is -13.711111
weight of 3 is 2.000000
not used!
weight of 0 is 2.269038
weight of 1 is -52.668698
weight of 2 is -13.711111
weight of 3 is 1.000000
not used!
deny
deny
deny
deny
weight of 0 is 1.735961
weight of 1 is -52.670821
weight of 2 is -13.711111
weight of 3 is 0.000000
not used!
deny
deny
weight of 0 is 1.202605
weight of 1 is -52.678218
weight of 2 is -13.777778
weight of 3 is -1.000000
not used!
deny
deny
deny
deny
deny
deny
deny
deny
deny
deny
weight of 0 is 1.707814
weight of 1 is -52.676449
weight of 2 is -12.622222
weight of 3 is 0.000000
used!
weight of 0 is 2.213024
weight of 1 is -52.674679
weight of 2 is -11.466667
weight of 3 is 1.000000
used!
accept
accept
deny
deny
deny
deny
weight of 0 is 2.729599
weight of 1 is -50.726511
weight of 2 is -11.288889
weight of 3 is 2.000000
used!
weight of 0 is 3.246174
weight of 1 is -48.778343
weight of 2 is -11.111111
weight of 3 is 3.000000
used!
deny
deny
weight of 0 is 2.713098
weight of 1 is -48.780452
weight of 2 is -11.288889
weight of 3 is 2.000000
not used!
accept
accept
weight of 0 is 2.179794
weight of 1 is -48.799181
weight of 2 is -11.377778
weight of 3 is 1.000000
not used!
accept
accept
weight of 0 is 1.646751
weight of 1 is -48.821086
weight of 2 is -11.555556
weight of 3 is 0.000000
not used!
accept
accept
deny
deny
accept
accept
weight of 0 is 1.113390
weight of 1 is -48.821088
weight of 2 is -11.555556
weight of 3 is -1.000000
not used!
deny
deny
deny
deny
weight of 0 is 0.580341
weight of 1 is -48.842362
weight of 2 is -11.822222
weight of 3 is -2.000000
not used!
deny
deny
weight of 0 is 0.047130
weight of 1 is -48.854890
weight of 2 is -11.822222
weight of 3 is -3.000000
not used!
deny
deny
deny
deny
deny
deny
weight of 0 is -0.445511
weight of 1 is -48.854904
weight of 2 is -11.822222
weight of 3 is -4.000000
not used!
deny
deny
deny
deny
weight of 0 is -0.978826
weight of 1 is -48.854907
weight of 2 is -11.822222
weight of 3 is -5.000000
not used!
deny
deny
deny
deny
deny
deny
weight of 0 is -1.511916
weight of 1 is -48.875246
weight of 2 is -11.911111
weight of 3 is -6.000000
not used!
deny
deny
warn: ignoring syscall mprotect(...)
deny
deny
weight of 0 is -2.045228
weight of 1 is -48.890554
weight of 2 is -12.288889
weight of 3 is -7.000000
not used!
deny
deny
deny
deny
deny
deny
deny
deny
weight of 0 is -2.578523
weight of 1 is -48.902250
weight of 2 is -12.777778
weight of 3 is -8.000000
not used!
deny
deny
weight of 0 is -3.111992
weight of 1 is -48.902264
weight of 2 is -12.777778
weight of 3 is -9.000000
not used!
deny
deny
weight of 0 is -2.587446
weight of 1 is -48.215209
weight of 2 is -12.422222
weight of 3 is -8.000000
used!
weight of 0 is -2.062900
weight of 1 is -47.528153
weight of 2 is -12.066667
weight of 3 is -7.000000
used!
deny
deny
deny
deny
weight of 0 is -2.650258
weight of 1 is -47.662764
weight of 2 is -12.066667
weight of 3 is -8.000000
not used!
deny
deny
deny
deny
deny
deny
deny
deny
weight of 0 is -2.125712
weight of 1 is -47.662750
weight of 2 is -12.066667
weight of 3 is -7.000000
used!
weight of 0 is -1.601166
weight of 1 is -47.662736
weight of 2 is -12.066667
weight of 3 is -6.000000
used!
deny
deny
weight of 0 is -1.076636
weight of 1 is -47.661907
weight of 2 is -10.733333
weight of 3 is -5.000000
used!
weight of 0 is -0.552105
weight of 1 is -47.661077
weight of 2 is -9.400000
weight of 3 is -4.000000
used!
deny
deny
weight of 0 is -1.139463
weight of 1 is -47.661091
weight of 2 is -9.400000
weight of 3 is -5.000000
not used!
deny
deny
weight of 0 is -0.614917
weight of 1 is -47.660610
weight of 2 is -9.400000
weight of 3 is -4.000000
used!
weight of 0 is -0.090371
weight of 1 is -47.660128
weight of 2 is -9.400000
weight of 3 is -3.000000
used!
deny
deny
weight of 0 is 0.434175
weight of 1 is -47.659646
weight of 2 is -9.222222
weight of 3 is -2.000000
used!
weight of 0 is 0.958721
weight of 1 is -47.659164
weight of 2 is -9.044444
weight of 3 is -1.000000
used!
deny
deny
deny
deny
weight of 0 is 1.483269
weight of 1 is -47.657960
weight of 2 is -8.688889
weight of 3 is 0.000000
used!
weight of 0 is 2.007817
weight of 1 is -47.656757
weight of 2 is -8.333333
weight of 3 is 1.000000
used!
deny
deny
weight of 0 is 2.532365
weight of 1 is -47.656743
weight of 2 is -8.333333
weight of 3 is 2.000000
used!
weight of 0 is 3.056913
weight of 1 is -47.656729
weight of 2 is -8.333333
weight of 3 is 3.000000
used!
accept
accept
weight of 0 is 3.581462
weight of 1 is -46.969586
weight of 2 is -8.155556
weight of 3 is 4.000000
used!
weight of 0 is 4.106010
weight of 1 is -46.282444
weight of 2 is -7.977778
weight of 3 is 5.000000
used!
deny
deny
weight of 0 is 4.638997
weight of 1 is -44.038470
weight of 2 is -7.800000
[...]
weight of 3 is -15.000000
used!
deny
deny
weight of 0 is 0.130347
weight of 1 is -14.470187
weight of 2 is -15.488889
weight of 3 is -14.000000
used!
weight of 0 is 0.145473
weight of 1 is -14.470171
weight of 2 is -15.488889
weight of 3 is -13.000000
used!
deny
deny
weight of 0 is 0.160599
weight of 1 is -14.470152
weight of 2 is -15.488889
weight of 3 is -12.000000
used!
weight of 0 is 0.175725
weight of 1 is -14.470133
weight of 2 is -15.488889
weight of 3 is -11.000000
used!
deny
deny
weight of 0 is 0.190851
weight of 1 is -14.470110
weight of 2 is -15.133333
weight of 3 is -10.000000
used!
weight of 0 is 0.205977
weight of 1 is -14.470086
weight of 2 is -14.777778
weight of 3 is -9.000000
used!
deny
deny
deny
deny
deny
deny
weight of 0 is 0.221103
weight of 1 is -14.470067
weight of 2 is -14.777778
weight of 3 is -8.000000
used!
weight of 0 is 0.236229
weight of 1 is -14.470049
weight of 2 is -14.777778
weight of 3 is -7.000000
used!
deny
deny
deny
deny
weight of 0 is 0.251355
weight of 1 is -14.470002
weight of 2 is -14.066667
weight of 3 is -6.000000
used!
weight of 0 is 0.266481
weight of 1 is -14.469955
weight of 2 is -13.355556
weight of 3 is -5.000000
used!
deny
deny
weight of 0 is 0.281607
weight of 1 is -14.469945
weight of 2 is -13.355556
weight of 3 is -4.000000
used!
weight of 0 is 0.296733
weight of 1 is -14.469936
weight of 2 is -13.355556
weight of 3 is -3.000000
used!
deny
deny
weight of 0 is 0.311859
weight of 1 is -14.469917
weight of 2 is -13.355556
weight of 3 is -2.000000
used!
weight of 0 is 0.326985
weight of 1 is -14.469898
weight of 2 is -13.355556
weight of 3 is -1.000000
used!
deny
deny
weight of 0 is 0.342111
weight of 1 is -14.469879
weight of 2 is -13.355556
weight of 3 is 0.000000
used!
weight of 0 is 0.357237
weight of 1 is -14.469861
weight of 2 is -13.355556
weight of 3 is 1.000000
used!
accept
accept
accept
accept
weight of 0 is 0.372363
weight of 1 is -14.469842
weight of 2 is -13.355556
weight of 3 is 2.000000
used!
weight of 0 is 0.387489
weight of 1 is -14.469823
weight of 2 is -13.355556
weight of 3 is 3.000000
used!
accept
accept
weight of 0 is 0.372363
weight of 1 is -14.471025
weight of 2 is -13.355556
weight of 3 is 2.000000
not used!
weight of 0 is 0.357237
weight of 1 is -14.471176
weight of 2 is -13.355556
weight of 3 is 1.000000
not used!
deny
deny
info: Increasing stack size by one page.
deny
deny
deny
deny
accept
accept
deny
deny
accept
accept
deny
deny
deny
deny
deny
deny
weight of 0 is 0.398161
weight of 1 is -14.469151
weight of 2 is -12.466667
weight of 3 is 2.000000
used!
weight of 0 is 0.439085
weight of 1 is -14.467127
weight of 2 is -11.577778
weight of 3 is 3.000000
used!
accept
accept
deny
deny
accept
accept
weight of 0 is 0.480006
weight of 1 is -14.466935
weight of 2 is -11.044444
weight of 3 is 4.000000
used!
weight of 0 is 0.520928
weight of 1 is -14.466742
weight of 2 is -10.511111
weight of 3 is 5.000000
used!
deny
deny
weight of 0 is 0.561847
weight of 1 is -14.466571
weight of 2 is -9.266667
weight of 3 is 6.000000
used!
weight of 0 is 0.602766
weight of 1 is -14.466399
weight of 2 is -8.022222
weight of 3 is 7.000000
used!
deny
deny
accept
accept
deny
deny
weight of 0 is 0.643685
weight of 1 is -14.466312
weight of 2 is -6.955556
weight of 3 is 8.000000
used!
weight of 0 is 0.684604
weight of 1 is -14.466225
weight of 2 is -5.888889
weight of 3 is 9.000000
used!
accept
accept
weight of 0 is 0.725522
weight of 1 is -14.466209
weight of 2 is -4.644444
weight of 3 is 10.000000
used!
weight of 0 is 0.766440
weight of 1 is -14.466192
weight of 2 is -3.400000
weight of 3 is 11.000000
used!
accept
accept
accept
accept
accept
accept
accept
accept
accept
accept
accept
accept
accept
accept
accept
accept
accept
accept
accept
accept
accept
accept
weight of 0 is 0.725543
weight of 1 is -14.468134
weight of 2 is -3.422222
weight of 3 is 10.000000
not used!
weight of 0 is 0.684621
weight of 1 is -14.468150
weight of 2 is -3.422222
weight of 3 is 9.000000
not used!
weight of 0 is 0.643701
weight of 1 is -14.468171
weight of 2 is -3.422222
weight of 3 is 8.000000
not used!
weight of 0 is 0.602783
weight of 1 is -14.468305
weight of 2 is -3.600000
weight of 3 is 7.000000
not used!
weight of 0 is 0.561866
weight of 1 is -14.468448
weight of 2 is -3.955556
weight of 3 is 6.000000
not used!
weight of 0 is 0.520959
weight of 1 is -14.468467
weight of 2 is -5.200000
weight of 3 is 5.000000
not used!
weight of 0 is 0.480038
weight of 1 is -14.468654
weight of 2 is -6.444444
weight of 3 is 4.000000
not used!
weight of 0 is 0.439119
weight of 1 is -14.469117
weight of 2 is -6.466667
weight of 3 is 3.000000
not used!
weight of 0 is 0.398203
weight of 1 is -14.469340
weight of 2 is -6.733333
weight of 3 is 2.000000
not used!
weight of 0 is 0.357291
weight of 1 is -14.469422
weight of 2 is -7.088889
weight of 3 is 1.000000
not used!
weight of 0 is 0.316382
weight of 1 is -14.469628
weight of 2 is -7.444444
weight of 3 is 0.000000
not used!
weight of 0 is 0.275474
weight of 1 is -14.469828
weight of 2 is -8.688889
weight of 3 is -1.000000
not used!
weight of 0 is 0.234567
weight of 1 is -14.469927
weight of 2 is -9.577778
weight of 3 is -2.000000
not used!
weight of 0 is 0.193667
weight of 1 is -14.470007
weight of 2 is -10.822222
weight of 3 is -3.000000
not used!
deny
deny
info: Increasing stack size by one page.
deny
deny
deny
deny
deny
deny
deny
deny
deny
deny
deny
deny
deny
deny
deny
deny
weight of 0 is 0.234605
weight of 1 is -14.467982
weight of 2 is -9.933333
weight of 3 is -2.000000
used!
weight of 0 is 0.275543
weight of 1 is -14.465958
weight of 2 is -9.044444
weight of 3 is -1.000000
used!
deny
deny
deny
deny
deny
deny
weight of 0 is 0.316479
weight of 1 is -14.465765
weight of 2 is -8.511111
weight of 3 is 0.000000
used!
weight of 0 is 0.357415
weight of 1 is -14.465573
weight of 2 is -7.977778
weight of 3 is 1.000000
used!
deny
deny
weight of 0 is 0.398348
weight of 1 is -14.465399
weight of 2 is -6.733333
weight of 3 is 2.000000
used!
weight of 0 is 0.439281
weight of 1 is -14.465225
weight of 2 is -5.488889
weight of 3 is 3.000000
used!
deny
deny
accept
accept
deny
deny
weight of 0 is 0.480214
weight of 1 is -14.465138
weight of 2 is -4.422222
weight of 3 is 4.000000
used!
weight of 0 is 0.521147
weight of 1 is -14.465051
weight of 2 is -3.355556
weight of 3 is 5.000000
used!
accept
accept
weight of 0 is 0.562080
weight of 1 is -14.464983
weight of 2 is -3.000000
weight of 3 is 6.000000
used!
weight of 0 is 0.603012
weight of 1 is -14.464915
weight of 2 is -2.644444
weight of 3 is 7.000000
used!
accept
accept
weight of 0 is 0.643945
weight of 1 is -14.464899
weight of 2 is -1.400000
weight of 3 is 8.000000
used!
weight of 0 is 0.684878
weight of 1 is -14.464882
weight of 2 is -0.155556
weight of 3 is 9.000000
used!
deny
deny
accept
accept
accept
accept
deny
deny
deny
deny
deny
deny
deny
deny
deny
deny
deny
deny
weight of 0 is 0.700004
weight of 1 is -9.905646
weight of 2 is -0.155556
weight of 3 is 10.000000
used!
weight of 0 is 0.715130
weight of 1 is -5.346410
weight of 2 is -0.155556
weight of 3 is 11.000000
used!
deny
deny
weight of 0 is 0.755986
weight of 1 is -0.789574
weight of 2 is -0.155556
weight of 3 is 12.000000
used!
weight of 0 is 0.796843
weight of 1 is 3.767262
weight of 2 is -0.155556
weight of 3 is 13.000000
used!
accept
accept
weight of 0 is 0.811969
weight of 1 is 8.324079
weight of 2 is -0.155556
weight of 3 is 14.000000
used!
weight of 0 is 0.827095
weight of 1 is 12.880897
weight of 2 is -0.155556
weight of 3 is 15.000000
used!
accept
accept
weight of 0 is 0.867952
weight of 1 is 17.437733
weight of 2 is -0.155556
weight of 3 is 16.000000
used!
weight of 0 is 0.908809
weight of 1 is 21.994569
weight of 2 is -0.155556
weight of 3 is 17.000000
used!
accept
accept
accept
accept
weight of 0 is 0.949746
weight of 1 is 21.996748
weight of 2 is -0.155556
weight of 3 is 18.000000
used!
weight of 0 is 0.990684
weight of 1 is 21.998927
weight of 2 is -0.155556
weight of 3 is 19.000000
used!
accept
accept
accept
accept
accept
accept
accept
accept
accept
accept
accept
accept
accept
accept
accept
accept
accept
accept
accept
accept
accept
accept
accept
accept
accept
accept
accept
accept
accept
accept
accept
accept
accept
accept
accept
accept
weight of 0 is 0.949754
weight of 1 is 21.998784
weight of 2 is -0.511111
weight of 3 is 18.000000
not used!
weight of 0 is 0.908825
weight of 1 is 21.998685
weight of 2 is -1.400000
weight of 3 is 17.000000
not used!
weight of 0 is 0.867903
weight of 1 is 21.998605
weight of 2 is -2.644444
weight of 3 is 16.000000
not used!
weight of 0 is 0.853007
weight of 1 is 21.998549
weight of 2 is -2.644444
weight of 3 is 15.000000
not used!
accept
accept
weight of 0 is 0.812150
weight of 1 is 17.441713
weight of 2 is -2.644444
weight of 3 is 14.000000
not used!
accept
accept
accept
accept
weight of 0 is 0.771267
weight of 1 is 12.882679
weight of 2 is -2.644444
weight of 3 is 13.000000
not used!
weight of 0 is 0.756141
weight of 1 is 12.881763
weight of 2 is -3.711111
weight of 3 is 12.000000
not used!
accept
accept
weight of 0 is 0.741015
weight of 1 is 12.881737
weight of 2 is -3.711111
weight of 3 is 11.000000
not used!
weight of 0 is 0.725889
weight of 1 is 12.881681
weight of 2 is -3.711111
weight of 3 is 10.000000
not used!
accept
accept
accept
accept
accept
accept
accept
accept
accept
accept
accept
accept
accept
accept
accept
accept
weight of 0 is 0.125977
weight of 1 is 8.373516
weight of 2 is -4.155556
weight of 3 is 9.000000
not used!
weight of 0 is -0.421515
weight of 1 is 3.864137
weight of 2 is -4.155556
weight of 3 is 8.000000
not used!
weight of 0 is -0.938153
weight of 1 is 1.346653
weight of 2 is -5.044444
weight of 3 is 7.000000
not used!
weight of 0 is -1.471225
weight of 1 is 0.009041
weight of 2 is -5.577778
weight of 3 is 6.000000
not used!
weight of 0 is -2.004605
weight of 1 is -0.015543
weight of 2 is -6.866667
weight of 3 is 5.000000
not used!
weight of 0 is -2.019731
weight of 1 is -0.032714
weight of 2 is -6.866667
weight of 3 is 4.000000
not used!
deny
deny
accept
accept
accept
accept
weight of 0 is -2.034857
weight of 1 is -0.034579
weight of 2 is -6.866667
weight of 3 is 3.000000
not used!
accept
accept
accept
accept
accept
accept
accept
accept
accept
accept
accept
accept
accept
accept
accept
accept
accept
accept
weight of 0 is -2.049983
weight of 1 is -0.049487
weight of 2 is -6.866667
weight of 3 is 2.000000
not used!
weight of 0 is -2.090834
weight of 1 is -0.049543
weight of 2 is -6.866667
weight of 3 is 1.000000
not used!
accept
accept
weight of 0 is -2.105960
weight of 1 is -0.057828
weight of 2 is -6.866667
weight of 3 is 0.000000
not used!
accept
accept
accept
accept
accept
accept
accept
accept
deny
deny
accept
accept
accept
accept
weight of 0 is -2.121086
weight of 1 is -0.066057
weight of 2 is -6.866667
weight of 3 is -1.000000
not used!
weight of 0 is -2.136212
weight of 1 is -0.066097
weight of 2 is -6.866667
weight of 3 is -2.000000
not used!
weight of 0 is -2.151338
weight of 1 is -0.066153
weight of 2 is -6.866667
weight of 3 is -3.000000
not used!
deny
deny
deny
deny
deny
deny
weight of 0 is -2.136212
weight of 1 is -0.061006
weight of 2 is -6.866667
weight of 3 is -2.000000
used!
weight of 0 is -2.121086
weight of 1 is -0.055858
weight of 2 is -6.866667
weight of 3 is -1.000000
used!
deny
deny
weight of 0 is -2.105960
weight of 1 is -0.055839
weight of 2 is -6.866667
weight of 3 is 0.000000
used!
weight of 0 is -2.090834
weight of 1 is -0.055820
weight of 2 is -6.866667
weight of 3 is 1.000000
used!
accept
accept
weight of 0 is -2.105960
weight of 1 is -0.057342
weight of 2 is -6.866667
weight of 3 is 0.000000
not used!
accept
accept
accept
accept
weight of 0 is -2.121086
weight of 1 is -0.057398
weight of 2 is -6.866667
weight of 3 is -1.000000
not used!
deny
deny
deny
deny
deny
deny
deny
deny
deny
deny
deny
deny
weight of 0 is -2.105959
weight of 1 is -0.051440
weight of 2 is -6.866667
weight of 3 is 0.000000
used!
weight of 0 is -2.090834
weight of 1 is -0.045483
weight of 2 is -6.866667
weight of 3 is 1.000000
used!
accept
accept
weight of 0 is -2.075707
weight of 1 is -0.045464
weight of 2 is -6.866667
weight of 3 is 2.000000
used!
weight of 0 is -2.060582
weight of 1 is -0.045445
weight of 2 is -6.866667
weight of 3 is 3.000000
used!
accept
accept
accept
accept
accept
accept
accept
accept
weight of 0 is -2.075707
weight of 1 is -0.045464
weight of 2 is -6.866667
weight of 3 is 2.000000
not used!
accept
accept
weight of 0 is -2.090834
weight of 1 is -0.052211
weight of 2 is -7.044444
weight of 3 is 1.000000
not used!
deny
deny
accept
accept
accept
accept
accept
accept
accept
accept
accept
accept
accept
accept
accept
accept
accept
accept
accept
accept
accept
accept
accept
accept
accept
accept
accept
accept
accept
accept
accept
accept
accept
accept
accept
accept
accept
accept
accept
accept
accept
accept
accept
accept
accept
accept
accept
accept
accept
accept
accept
accept
accept
accept
accept
accept
accept
accept
accept
accept
accept
accept
accept
accept
accept
accept
accept
accept
accept
accept
weight of 0 is -2.105960
weight of 1 is -0.052267
weight of 2 is -7.044444
weight of 3 is 0.000000
not used!
accept
accept
accept
accept
accept
accept
weight of 0 is -2.121086
weight of 1 is -0.052323
weight of 2 is -7.044444
weight of 3 is -1.000000
not used!
deny
deny
Switching CPUS @ tick 325809573000
Simulation ends instruction count:100000000
switching cpus
info: Entering event queue @ 325809573000.  Starting simulation...
**** REAL SIMULATION ****
info: Entering event queue @ 325817903000.  Starting simulation...
deny
deny
deny
deny
deny
deny
weight of 0 is -2.105960
weight of 1 is -0.035326
weight of 2 is -7.044444
weight of 3 is 0.000000
used!
weight of 0 is -2.090834
weight of 1 is -0.018328
weight of 2 is -7.044444
weight of 3 is 1.000000
used!
accept
accept
deny
deny
accept
accept
accept
accept
accept
accept
accept
accept
deny
deny
accept
accept
accept
accept
accept
accept
accept
accept
accept
accept
accept
accept
accept
accept
weight of 0 is -2.105626
weight of 1 is -0.045366
weight of 2 is -7.311111
weight of 3 is 0.000000
not used!
weight of 0 is -2.120752
weight of 1 is -0.072244
weight of 2 is -7.311111
weight of 3 is -1.000000
not used!
weight of 0 is -2.135878
weight of 1 is -0.083760
weight of 2 is -7.311111
weight of 3 is -2.000000
not used!
weight of 0 is -2.641430
weight of 1 is -0.285029
weight of 2 is -7.311111
weight of 3 is -3.000000
not used!
weight of 0 is -3.228788
weight of 1 is -3.582178
weight of 2 is -7.311111
weight of 3 is -4.000000
not used!
weight of 0 is -3.243914
weight of 1 is -8.085484
weight of 2 is -7.311111
weight of 3 is -5.000000
not used!
weight of 0 is -3.831273
weight of 1 is -11.567143
weight of 2 is -7.311111
weight of 3 is -6.000000
not used!
weight of 0 is -4.418631
weight of 1 is -11.574019
weight of 2 is -7.311111
weight of 3 is -7.000000
not used!
weight of 0 is -5.005989
weight of 1 is -11.577213
weight of 2 is -7.311111
weight of 3 is -8.000000
not used!
weight of 0 is -5.593347
weight of 1 is -11.577588
weight of 2 is -7.311111
weight of 3 is -9.000000
not used!
deny
deny
weight of 0 is -5.608473
weight of 1 is -15.062892
weight of 2 is -7.311111
weight of 3 is -10.000000
not used!
deny
deny
deny
deny
deny
deny
deny
deny
deny
deny
deny
deny
deny
deny
deny
deny
deny
deny
deny
deny
deny
deny
deny
deny
weight of 0 is -5.102922
weight of 1 is -15.060562
weight of 2 is -7.311111
weight of 3 is -9.000000
used!
weight of 0 is -4.597370
weight of 1 is -15.058233
weight of 2 is -7.311111
weight of 3 is -8.000000
used!
deny
deny
deny
deny
deny
deny
deny
deny
deny
deny
deny
deny
weight of 0 is -4.010012
weight of 1 is -11.765762
weight of 2 is -7.311111
weight of 3 is -7.000000
used!
weight of 0 is -3.422654
weight of 1 is -8.473291
weight of 2 is -7.311111
weight of 3 is -6.000000
used!
deny
deny
deny
deny
deny
deny
deny
deny
deny
deny
deny
deny
weight of 0 is -3.407528
weight of 1 is -8.466232
weight of 2 is -7.311111
weight of 3 is -5.000000
used!
weight of 0 is -3.392402
weight of 1 is -8.459172
weight of 2 is -7.311111
weight of 3 is -4.000000
used!
deny
deny
deny
deny
deny
deny
deny
deny
deny
deny
deny
deny
deny
deny
deny
deny
deny
deny
deny
deny
deny
deny
deny
deny
deny
deny
deny
deny
deny
deny
deny
deny
deny
deny
weight of 0 is -2.886850
weight of 1 is -8.347726
weight of 2 is -7.311111
weight of 3 is -3.000000
used!
weight of 0 is -2.381298
weight of 1 is -8.236280
weight of 2 is -7.311111
weight of 3 is -2.000000
used!
deny
deny
deny
deny
deny
deny
deny
deny
deny
deny
deny
deny
deny
deny
deny
deny
deny
deny
deny
deny
deny
deny
deny
deny
weight of 0 is -2.366172
weight of 1 is -8.200157
weight of 2 is -7.311111
weight of 3 is -1.000000
used!
weight of 0 is -2.351046
weight of 1 is -8.164034
weight of 2 is -7.311111
weight of 3 is 0.000000
used!
accept
accept
weight of 0 is -2.335920
weight of 1 is -8.164015
weight of 2 is -7.311111
weight of 3 is 1.000000
used!
weight of 0 is -2.320794
weight of 1 is -8.163996
weight of 2 is -7.311111
weight of 3 is 2.000000
used!
accept
accept
weight of 0 is -2.335920
weight of 1 is -8.164015
weight of 2 is -7.311111
weight of 3 is 1.000000
not used!
accept
accept
weight of 0 is -2.351046
weight of 1 is -8.168073
weight of 2 is -7.311111
weight of 3 is 0.000000
not used!
accept
accept
weight of 0 is -2.366172
weight of 1 is -8.168712
weight of 2 is -7.311111
weight of 3 is -1.000000
not used!
weight of 0 is -2.381298
weight of 1 is -8.169256
weight of 2 is -7.311111
weight of 3 is -2.000000
not used!
deny
deny
deny
deny
deny
deny
deny
deny
deny
deny
deny
deny
deny
deny
deny
deny
deny
deny
deny
deny
deny
deny
deny
deny
weight of 0 is -2.366352
weight of 1 is -7.879801
weight of 2 is -7.311111
weight of 3 is -1.000000
used!
weight of 0 is -2.351406
weight of 1 is -7.590345
weight of 2 is -7.311111
weight of 3 is 0.000000
used!
deny
deny
deny
deny
weight of 0 is -2.336461
weight of 1 is -7.484373
weight of 2 is -6.777778
weight of 3 is 1.000000
used!
weight of 0 is -2.321516
weight of 1 is -7.378401
weight of 2 is -6.244444
weight of 3 is 2.000000
used!
accept
accept
deny
deny
weight of 0 is -2.336643
weight of 1 is -7.409129
weight of 2 is -6.244444
weight of 3 is 1.000000
not used!
deny
deny
accept
accept
weight of 0 is -2.351769
weight of 1 is -7.409580
weight of 2 is -6.244444
weight of 3 is 0.000000
not used!
accept
accept
accept
accept
accept
accept
accept
accept
accept
accept
accept
accept
accept
accept
accept
accept
deny
deny
weight of 0 is -2.336821
weight of 1 is -3.956765
weight of 2 is -5.800000
weight of 3 is 1.000000
used!
weight of 0 is -2.321874
weight of 1 is -0.503951
weight of 2 is -5.355556
weight of 3 is 2.000000
used!
accept
accept
weight of 0 is -2.909232
weight of 1 is -3.958813
weight of 2 is -5.355556
weight of 3 is 1.000000
not used!
deny
deny
accept
accept
weight of 0 is -3.414784
weight of 1 is -3.961669
weight of 2 is -5.355556
weight of 3 is 0.000000
not used!
accept
accept
weight of 0 is -3.429910
weight of 1 is -4.067272
weight of 2 is -5.355556
weight of 3 is -1.000000
not used!
deny
deny
deny
deny
deny
deny
deny
deny
deny
deny
deny
deny
deny
deny
deny
deny
deny
deny
deny
deny
deny
deny
weight of 0 is -3.414784
weight of 1 is -4.044615
weight of 2 is -5.355556
weight of 3 is 0.000000
used!
weight of 0 is -3.399658
weight of 1 is -4.021957
weight of 2 is -5.355556
weight of 3 is 1.000000
used!
accept
accept
weight of 0 is -3.414784
weight of 1 is -4.044633
weight of 2 is -5.355556
weight of 3 is 0.000000
not used!
accept
accept
weight of 0 is -3.429910
weight of 1 is -4.064229
weight of 2 is -5.355556
weight of 3 is -1.000000
not used!
deny
deny
deny
deny
weight of 0 is -3.414784
weight of 1 is -4.033831
weight of 2 is -5.355556
weight of 3 is 0.000000
used!
weight of 0 is -3.399658
weight of 1 is -4.003433
weight of 2 is -5.355556
weight of 3 is 1.000000
used!
deny
deny
Exiting @ tick 413294100000 because a thread reached the max instruction count
