Running SPEC test: omnetpp

/home/victorfu/cpu2017/benchspec/CPU/520.omnetpp_r
/home/victorfu/finalproject/gem5/build/X86/gem6.opt --outdir="/home/victorfu/output/bench_spec/fastforward/omnetpp" /home/victorfu/finalproject/gem5/configs/example/se.py --cmd=omnetpp_r_base.victor_jun10-m64 --standard-switch=0 --warmup-insts=06000000 --caches  --l2cache --l1i_size=16kB  --l1d_size=64kB --l2_size=256kB --cpu-type=DerivO3CPU  --mem-type=DDR3_1600_8x8  --cpu-clock=1GHz --maxinsts=10000000 --options="-c General -r" --l2-hwp-type=TaggedPrefetcher --mlu_pf_type=perceptron

gem5 Simulator System.  http://gem5.org
gem5 is copyrighted software; use the --copyright option for details.

gem5 compiled Jun 14 2019 14:23:51
gem5 started Jun 14 2019 15:13:52
gem5 executing on tetracosa.cs.ucla.edu, pid 138705
command line: /home/victorfu/finalproject/gem5/build/X86/gem6.opt --outdir=/home/victorfu/output/bench_spec/fastforward/omnetpp /home/victorfu/finalproject/gem5/configs/example/se.py --cmd=omnetpp_r_base.victor_jun10-m64 --standard-switch=0 --warmup-insts=06000000 --caches --l2cache --l1i_size=16kB --l1d_size=64kB --l2_size=256kB --cpu-type=DerivO3CPU --mem-type=DDR3_1600_8x8 --cpu-clock=1GHz --maxinsts=10000000 '--options=-c General -r' --l2-hwp-type=TaggedPrefetcher --mlu_pf_type=perceptron

info: Standard input is not a terminal, disabling listeners.
Warning: l2-hwp-type is set ( TaggedPrefetcher ), but the current l2 has a default Hardware Prefetcher of type <class 'm5.params.NullSimObject'> , using the specified by the flag option.
MLU-Prefetch Perceptron Enabled.
Global frequency set at 1000000000000 ticks per second
warn: DRAM device capacity (8192 Mbytes) does not match the address range assigned (512 Mbytes)
warn: Sockets disabled, not accepting gdb connections
**** REAL SIMULATION ****
info: Entering event queue @ 0.  Starting simulation...
accept
accept
accept
accept
accept
accept
accept
accept
accept
accept
accept
accept
accept
accept
accept
accept
accept
accept
accept
accept
accept
accept
accept
accept
accept
accept
accept
accept
accept
accept
accept
accept
accept
accept
accept
accept
accept
accept
accept
accept
accept
accept
accept
accept
accept
accept
accept
accept
accept
accept
accept
accept
accept
accept
accept
accept
accept
accept
accept
accept
accept
accept
accept
accept
accept
accept
accept
accept
accept
accept
accept
accept
accept
accept
accept
accept
accept
accept
accept
accept
accept
accept
accept
accept
accept
accept
accept
accept
accept
accept
accept
accept
accept
accept
accept
accept
accept
accept
accept
accept
accept
accept
accept
accept
accept
accept
accept
accept
accept
accept
accept
accept
accept
accept
accept
accept
accept
accept
accept
accept
info: Increasing stack size by one page.
accept
accept
accept
accept
accept
accept
accept
accept
accept
accept
accept
accept
accept
accept
accept
accept
accept
accept
accept
accept
accept
accept
accept
accept
accept
accept
accept
accept
accept
accept
accept
accept
accept
accept
accept
accept
accept
accept
accept
accept
accept
accept
accept
accept
accept
accept
accept
accept
accept
accept
accept
accept
accept
accept
accept
accept
accept
accept
accept
accept
accept
accept
accept
accept
accept
accept
accept
accept
accept
accept
accept
accept
accept
accept
accept
accept
accept
accept
accept
accept
accept
accept
accept
accept
accept
accept
accept
accept
accept
accept
accept
accept
accept
accept
accept
accept
accept
accept
accept
accept
accept
accept
accept
accept
accept
accept
accept
accept
accept
accept
accept
accept
accept
accept
accept
accept
accept
accept
accept
accept
accept
accept
accept
accept
accept
accept
accept
accept
accept
accept
accept
accept
accept
accept
accept
accept
accept
accept
accept
accept
accept
accept
accept
accept
weight of 0 is -0.501081
weight of 1 is -0.000009
weight of 2 is -1.244444
weight of 3 is -1.000000
not used!
deny
deny
deny
deny
deny
deny
weight of 0 is -1.002120
weight of 1 is -0.040200
weight of 2 is -1.600000
weight of 3 is -2.000000
not used!
deny
deny
weight of 0 is -0.501576
weight of 1 is -0.039411
weight of 2 is -1.600000
weight of 3 is -1.000000
used!
weight of 0 is -0.001032
weight of 1 is -0.038622
weight of 2 is -1.600000
weight of 3 is 0.000000
used!
accept
accept
accept
accept
accept
accept
deny
deny
weight of 0 is -0.502079
weight of 1 is -0.038784
weight of 2 is -1.955556
weight of 3 is -1.000000
not used!
deny
deny
deny
deny
deny
deny
deny
deny
weight of 0 is -0.001535
weight of 1 is 0.001963
weight of 2 is -1.955556
weight of 3 is 0.000000
used!
weight of 0 is 0.499010
weight of 1 is 0.042711
weight of 2 is -1.955556
weight of 3 is 1.000000
used!
accept
accept
accept
accept
weight of 0 is 0.999554
weight of 1 is 0.042729
weight of 2 is -1.955556
weight of 3 is 2.000000
used!
weight of 0 is 1.500098
weight of 1 is 0.042748
weight of 2 is -1.955556
weight of 3 is 3.000000
used!
weight of 0 is 0.999050
weight of 1 is 0.001754
weight of 2 is -1.955556
weight of 3 is 2.000000
not used!
accept
accept
weight of 0 is 0.498013
weight of 1 is 0.000852
weight of 2 is -1.955556
weight of 3 is 1.000000
not used!
weight of 0 is -0.003035
weight of 1 is -0.000077
weight of 2 is -2.666667
weight of 3 is 0.000000
not used!
accept
accept
weight of 0 is -0.503580
weight of 1 is -0.041043
weight of 2 is -2.666667
weight of 3 is -1.000000
not used!
deny
deny
deny
deny
deny
deny
weight of 0 is -1.004108
weight of 1 is -0.042358
weight of 2 is -2.666667
weight of 3 is -2.000000
not used!
weight of 0 is -1.504636
weight of 1 is -0.042363
weight of 2 is -3.733333
weight of 3 is -3.000000
not used!
deny
deny
deny
deny
weight of 0 is -2.005164
weight of 1 is -0.042410
weight of 2 is -3.911111
weight of 3 is -4.000000
not used!
deny
deny
weight of 0 is -2.506198
weight of 1 is -0.083599
weight of 2 is -4.622222
weight of 3 is -5.000000
not used!
deny
deny
weight of 0 is -2.005654
weight of 1 is -0.083580
weight of 2 is -4.622222
weight of 3 is -4.000000
used!
weight of 0 is -1.505110
weight of 1 is -0.083561
weight of 2 is -4.622222
weight of 3 is -3.000000
used!
deny
deny
weight of 0 is -2.006043
weight of 1 is -0.091799
weight of 2 is -4.622222
weight of 3 is -4.000000
not used!
deny
deny
weight of 0 is -2.506568
weight of 1 is -0.124977
weight of 2 is -4.711111
weight of 3 is -5.000000
not used!
deny
deny
weight of 0 is -2.006024
weight of 1 is -0.119434
weight of 2 is -4.711111
weight of 3 is -4.000000
used!
weight of 0 is -1.505480
weight of 1 is -0.113892
weight of 2 is -4.711111
weight of 3 is -3.000000
used!
deny
deny
deny
deny
weight of 0 is -2.006528
weight of 1 is -0.154930
weight of 2 is -5.244444
weight of 3 is -4.000000
not used!
deny
deny
weight of 0 is -1.505754
weight of 1 is -0.154929
weight of 2 is -5.244444
weight of 3 is -3.000000
used!
weight of 0 is -1.004981
weight of 1 is -0.154928
weight of 2 is -5.244444
weight of 3 is -2.000000
used!
deny
deny
weight of 0 is -0.504437
weight of 1 is -0.147300
weight of 2 is -5.244444
weight of 3 is -1.000000
used!
weight of 0 is -0.003893
weight of 1 is -0.139673
weight of 2 is -5.244444
weight of 3 is 0.000000
used!
weight of 0 is -0.504417
weight of 1 is -0.182457
weight of 2 is -5.333333
weight of 3 is -1.000000
not used!
deny
deny
weight of 0 is -0.003644
weight of 1 is -0.165381
weight of 2 is -4.000000
weight of 3 is 0.000000
used!
weight of 0 is 0.497130
weight of 1 is -0.148304
weight of 2 is -2.666667
weight of 3 is 1.000000
used!
weight of 0 is -0.003394
weight of 1 is -0.148333
weight of 2 is -3.466667
weight of 3 is 0.000000
not used!
accept
accept
weight of 0 is 0.497150
weight of 1 is -0.148314
weight of 2 is -3.466667
weight of 3 is 1.000000
used!
weight of 0 is 0.997694
weight of 1 is -0.148295
weight of 2 is -3.466667
weight of 3 is 2.000000
used!
weight of 0 is 0.497169
weight of 1 is -0.148415
weight of 2 is -4.800000
weight of 3 is 1.000000
not used!
weight of 0 is -0.003355
weight of 1 is -0.148416
weight of 2 is -4.800000
weight of 3 is 0.000000
not used!
accept
accept
weight of 0 is -0.503900
weight of 1 is -0.150050
weight of 2 is -4.800000
weight of 3 is -1.000000
not used!
weight of 0 is -1.004947
weight of 1 is -0.191020
weight of 2 is -5.777778
weight of 3 is -2.000000
not used!
deny
deny
deny
deny
weight of 0 is -1.505492
weight of 1 is -0.203438
weight of 2 is -5.777778
weight of 3 is -3.000000
not used!
deny
deny
weight of 0 is -1.004948
weight of 1 is -0.203382
weight of 2 is -5.777778
weight of 3 is -2.000000
used!
weight of 0 is -0.504403
weight of 1 is -0.203325
weight of 2 is -5.777778
weight of 3 is -1.000000
used!
weight of 0 is -1.005481
weight of 1 is -0.235651
weight of 2 is -6.666667
weight of 3 is -2.000000
not used!
deny
deny
weight of 0 is -1.505866
weight of 1 is -0.280964
weight of 2 is -7.733333
weight of 3 is -3.000000
not used!
deny
deny
weight of 0 is -2.006910
weight of 1 is -0.295104
weight of 2 is -8.622222
weight of 3 is -4.000000
not used!
deny
deny
weight of 0 is -1.506366
weight of 1 is -0.294878
weight of 2 is -8.622222
weight of 3 is -3.000000
used!
weight of 0 is -1.005822
weight of 1 is -0.294653
weight of 2 is -8.622222
weight of 3 is -2.000000
used!
deny
deny
weight of 0 is -1.506573
weight of 1 is -0.297363
weight of 2 is -9.866667
weight of 3 is -3.000000
not used!
deny
deny
deny
deny
deny
deny
weight of 0 is -1.006029
weight of 1 is -0.283028
weight of 2 is -9.866667
weight of 3 is -2.000000
used!
weight of 0 is -0.505484
weight of 1 is -0.268693
weight of 2 is -9.866667
weight of 3 is -1.000000
used!
weight of 0 is -1.006209
weight of 1 is -0.283340
weight of 2 is -10.755556
weight of 3 is -2.000000
not used!
deny
deny
deny
deny
weight of 0 is -0.505665
weight of 1 is -0.283322
weight of 2 is -10.755556
weight of 3 is -1.000000
used!
weight of 0 is -0.005120
weight of 1 is -0.283303
weight of 2 is -10.755556
weight of 3 is 0.000000
used!
weight of 0 is -0.505733
weight of 1 is -0.292311
weight of 2 is -10.933333
weight of 3 is -1.000000
not used!
deny
deny
weight of 0 is -1.006346
weight of 1 is -0.292331
weight of 2 is -11.022222
weight of 3 is -2.000000
not used!
deny
deny
weight of 0 is -0.505802
weight of 1 is -0.292312
weight of 2 is -11.022222
weight of 3 is -1.000000
used!
weight of 0 is -0.005258
weight of 1 is -0.292294
weight of 2 is -11.022222
weight of 3 is 0.000000
used!
weight of 0 is -0.505871
weight of 1 is -0.297844
weight of 2 is -11.644444
weight of 3 is -1.000000
not used!
deny
deny
weight of 0 is -0.005326
weight of 1 is -0.297825
weight of 2 is -11.644444
weight of 3 is 0.000000
used!
weight of 0 is 0.495218
weight of 1 is -0.297807
weight of 2 is -11.644444
weight of 3 is 1.000000
used!
weight of 0 is -0.005326
weight of 1 is -0.303301
weight of 2 is -11.644444
weight of 3 is 0.000000
not used!
weight of 0 is -0.505870
weight of 1 is -0.303338
weight of 2 is -11.644444
weight of 3 is -1.000000
not used!
info: Increasing stack size by one page.
deny
deny
deny
deny
weight of 0 is -1.006622
weight of 1 is -0.319401
weight of 2 is -11.644444
weight of 3 is -2.000000
not used!
deny
deny
weight of 0 is -0.506078
weight of 1 is -0.311398
weight of 2 is -11.644444
weight of 3 is -1.000000
used!
weight of 0 is -0.005534
weight of 1 is -0.303395
weight of 2 is -11.644444
weight of 3 is 0.000000
used!
deny
deny
weight of 0 is -0.506247
weight of 1 is -0.305712
weight of 2 is -12.533333
weight of 3 is -1.000000
not used!
deny
deny
deny
deny
weight of 0 is -1.007001
weight of 1 is -0.322844
weight of 2 is -13.777778
weight of 3 is -2.000000
not used!
deny
deny
weight of 0 is -0.506457
weight of 1 is -0.322825
weight of 2 is -13.777778
weight of 3 is -1.000000
used!
weight of 0 is -0.005913
weight of 1 is -0.322807
weight of 2 is -13.777778
weight of 3 is 0.000000
used!
accept
accept
weight of 0 is -0.506457
weight of 1 is -0.339882
weight of 2 is -13.777778
weight of 3 is -1.000000
not used!
weight of 0 is -1.007166
weight of 1 is -0.353296
weight of 2 is -13.777778
weight of 3 is -2.000000
not used!
deny
deny
weight of 0 is -0.506622
weight of 1 is -0.314552
weight of 2 is -13.777778
weight of 3 is -1.000000
used!
weight of 0 is -0.006078
weight of 1 is -0.275808
weight of 2 is -13.777778
weight of 3 is 0.000000
used!
weight of 0 is -0.506622
weight of 1 is -0.289166
weight of 2 is -13.777778
weight of 3 is -1.000000
not used!
deny
deny
deny
deny
weight of 0 is -0.006078
weight of 1 is -0.289034
weight of 2 is -13.777778
weight of 3 is 0.000000
used!
weight of 0 is 0.494466
weight of 1 is -0.288903
weight of 2 is -13.777778
weight of 3 is 1.000000
used!
accept
accept
accept
accept
weight of 0 is 0.995010
weight of 1 is -0.288827
weight of 2 is -13.777778
weight of 3 is 2.000000
used!
weight of 0 is 1.495555
weight of 1 is -0.288752
weight of 2 is -13.777778
weight of 3 is 3.000000
used!
weight of 0 is 0.994451
weight of 1 is -0.334318
weight of 2 is -14.311111
weight of 3 is 2.000000
not used!
accept
accept
accept
accept
weight of 0 is 1.494995
weight of 1 is -0.295950
weight of 2 is -14.311111
weight of 3 is 3.000000
used!
weight of 0 is 1.995539
weight of 1 is -0.257582
weight of 2 is -14.311111
weight of 3 is 4.000000
used!
weight of 0 is 1.494995
weight of 1 is -0.303092
weight of 2 is -14.311111
weight of 3 is 3.000000
not used!
accept
accept
weight of 0 is 0.993892
weight of 1 is -0.348562
weight of 2 is -14.666667
weight of 3 is 2.000000
not used!
accept
accept
weight of 0 is 0.493347
weight of 1 is -0.368669
weight of 2 is -14.666667
weight of 3 is 1.000000
not used!
weight of 0 is -0.007699
weight of 1 is -0.368697
weight of 2 is -14.666667
weight of 3 is 0.000000
not used!
weight of 0 is -0.508243
weight of 1 is -0.409503
weight of 2 is -14.666667
weight of 3 is -1.000000
not used!
weight of 0 is -1.008787
weight of 1 is -0.436237
weight of 2 is -14.666667
weight of 3 is -2.000000
not used!
deny
deny
deny
deny
deny
deny
deny
deny
weight of 0 is -1.509890
weight of 1 is -0.481568
weight of 2 is -15.911111
weight of 3 is -3.000000
not used!
deny
deny
weight of 0 is -1.009346
weight of 1 is -0.466200
weight of 2 is -15.911111
weight of 3 is -2.000000
used!
weight of 0 is -0.508801
weight of 1 is -0.450832
weight of 2 is -15.911111
weight of 3 is -1.000000
used!
deny
deny
deny
deny
weight of 0 is -0.008257
weight of 1 is -0.446847
weight of 2 is -15.911111
weight of 3 is 0.000000
used!
weight of 0 is 0.492287
weight of 1 is -0.442862
weight of 2 is -15.911111
weight of 3 is 1.000000
used!
accept
accept
weight of 0 is 0.992831
weight of 1 is -0.425202
weight of 2 is -15.911111
weight of 3 is 2.000000
used!
weight of 0 is 1.493375
weight of 1 is -0.407542
weight of 2 is -15.911111
weight of 3 is 3.000000
used!
weight of 0 is 0.992407
weight of 1 is -0.442064
weight of 2 is -16.622222
weight of 3 is 2.000000
not used!
accept
accept
weight of 0 is 1.492952
weight of 1 is -0.438160
weight of 2 is -16.622222
weight of 3 is 3.000000
used!
weight of 0 is 1.993496
weight of 1 is -0.434257
weight of 2 is -16.622222
weight of 3 is 4.000000
used!
accept
accept
weight of 0 is 1.492906
weight of 1 is -0.447288
weight of 2 is -17.911111
weight of 3 is 3.000000
not used!
weight of 0 is 0.992362
weight of 1 is -0.450931
weight of 2 is -17.911111
weight of 3 is 2.000000
not used!
weight of 0 is 0.491818
weight of 1 is -0.450950
weight of 2 is -17.911111
weight of 3 is 1.000000
not used!
accept
accept
warn: ignoring syscall access(...)
accept
accept
weight of 0 is -0.008726
weight of 1 is -0.466900
weight of 2 is -17.911111
weight of 3 is 0.000000
not used!
accept
accept
weight of 0 is -0.509270
weight of 1 is -0.495344
weight of 2 is -17.911111
weight of 3 is -1.000000
not used!
deny
deny
weight of 0 is -1.009814
weight of 1 is -0.495401
weight of 2 is -17.911111
weight of 3 is -2.000000
not used!
deny
deny
deny
deny
deny
deny
deny
deny
deny
deny
weight of 0 is -0.509270
weight of 1 is -0.483865
weight of 2 is -17.911111
weight of 3 is -1.000000
used!
weight of 0 is -0.008726
weight of 1 is -0.472330
weight of 2 is -17.911111
weight of 3 is 0.000000
used!
accept
accept
weight of 0 is 0.491818
weight of 1 is -0.472311
weight of 2 is -17.911111
weight of 3 is 1.000000
used!
weight of 0 is 0.992363
weight of 1 is -0.472292
weight of 2 is -17.911111
weight of 3 is 2.000000
used!
accept
accept
accept
accept
weight of 0 is 0.491466
weight of 1 is -0.473879
weight of 2 is -17.911111
weight of 3 is 1.000000
not used!
accept
accept
weight of 0 is -0.009078
weight of 1 is -0.502529
weight of 2 is -17.911111
weight of 3 is 0.000000
not used!
weight of 0 is -0.509622
weight of 1 is -0.502548
weight of 2 is -17.911111
weight of 3 is -1.000000
not used!
deny
deny
deny
deny
weight of 0 is -1.010166
weight of 1 is -0.533042
weight of 2 is -17.911111
weight of 3 is -2.000000
not used!
deny
deny
weight of 0 is -1.511084
weight of 1 is -0.563593
weight of 2 is -18.088889
weight of 3 is -3.000000
not used!
deny
deny
weight of 0 is -2.012138
weight of 1 is -0.564594
weight of 2 is -19.244444
weight of 3 is -4.000000
not used!
deny
deny
weight of 0 is -2.513054
weight of 1 is -0.565464
weight of 2 is -19.422222
weight of 3 is -5.000000
not used!
deny
deny
weight of 0 is -3.014100
weight of 1 is -0.606322
weight of 2 is -20.488889
weight of 3 is -6.000000
not used!
deny
deny
deny
deny
weight of 0 is -2.513556
weight of 1 is -0.583927
weight of 2 is -20.488889
weight of 3 is -5.000000
used!
weight of 0 is -2.013012
weight of 1 is -0.561533
weight of 2 is -20.488889
weight of 3 is -4.000000
used!
deny
deny
deny
deny
weight of 0 is -1.512468
weight of 1 is -0.544740
weight of 2 is -20.488889
weight of 3 is -3.000000
used!
weight of 0 is -1.011924
weight of 1 is -0.527946
weight of 2 is -20.488889
weight of 3 is -2.000000
used!
deny
deny
weight of 0 is -0.511380
weight of 1 is -0.527927
weight of 2 is -20.488889
weight of 3 is -1.000000
used!
weight of 0 is -0.010835
weight of 1 is -0.527908
weight of 2 is -20.488889
weight of 3 is 0.000000
used!
accept
accept
weight of 0 is 0.489709
weight of 1 is 0.183995
weight of 2 is -20.488889
weight of 3 is 1.000000
used!
weight of 0 is 0.990253
weight of 1 is 0.895899
weight of 2 is -20.488889
weight of 3 is 2.000000
used!
accept
accept
weight of 0 is 1.490797
weight of 1 is 0.896425
weight of 2 is -20.488889
weight of 3 is 3.000000
used!
weight of 0 is 1.991342
weight of 1 is 0.896951
weight of 2 is -20.488889
weight of 3 is 4.000000
used!
accept
accept
weight of 0 is 2.491886
weight of 1 is 0.896970
weight of 2 is -20.488889
weight of 3 is 5.000000
used!
weight of 0 is 2.992430
weight of 1 is 0.896989
weight of 2 is -20.488889
weight of 3 is 6.000000
used!
weight of 0 is 2.500317
weight of 1 is 0.210781
weight of 2 is -21.733333
weight of 3 is 5.000000
not used!
accept
accept
weight of 0 is 1.999773
weight of 1 is -0.475408
weight of 2 is -21.733333
weight of 3 is 4.000000
not used!
accept
accept
weight of 0 is 1.507652
weight of 1 is -1.161679
weight of 2 is -22.444444
weight of 3 is 3.000000
not used!
weight of 0 is 1.015539
weight of 1 is -1.161691
weight of 2 is -22.622222
weight of 3 is 2.000000
not used!
weight of 0 is 0.523425
weight of 1 is -1.161707
weight of 2 is -22.622222
weight of 3 is 1.000000
not used!
accept
accept
deny
deny
accept
accept
weight of 0 is 0.022881
weight of 1 is -1.189888
weight of 2 is -22.622222
weight of 3 is 0.000000
not used!
weight of 0 is -0.477289
weight of 1 is -1.220339
weight of 2 is -22.888889
weight of 3 is -1.000000
not used!
deny
deny
weight of 0 is -0.977589
weight of 1 is -1.237892
weight of 2 is -24.133333
weight of 3 is -2.000000
not used!
deny
deny
deny
deny
weight of 0 is -0.477045
weight of 1 is -1.232538
weight of 2 is -24.133333
weight of 3 is -1.000000
used!
weight of 0 is 0.023499
weight of 1 is -1.227183
weight of 2 is -24.133333
weight of 3 is 0.000000
used!
deny
deny
accept
accept
deny
deny
deny
deny
deny
deny
accept
accept
weight of 0 is -0.477045
weight of 1 is -1.266832
weight of 2 is -24.133333
weight of 3 is -1.000000
not used!
weight of 0 is -0.978088
weight of 1 is -1.306536
weight of 2 is -24.666667
weight of 3 is -2.000000
not used!
deny
deny
weight of 0 is -1.478390
weight of 1 is -1.366923
weight of 2 is -24.844444
weight of 3 is -3.000000
not used!
deny
deny
weight of 0 is -1.978692
weight of 1 is -1.366942
weight of 2 is -25.022222
weight of 3 is -4.000000
not used!
deny
deny
weight of 0 is -1.478147
weight of 1 is -1.366923
weight of 2 is -25.022222
weight of 3 is -3.000000
used!
weight of 0 is -0.977603
weight of 1 is -1.366904
weight of 2 is -25.022222
weight of 3 is -2.000000
used!
deny
deny
weight of 0 is -0.476600
weight of 1 is -1.366891
weight of 2 is -24.488889
weight of 3 is -1.000000
used!
weight of 0 is 0.024403
weight of 1 is -1.366879
weight of 2 is -23.955556
weight of 3 is 0.000000
used!
accept
accept
weight of 0 is 0.524948
weight of 1 is -1.366860
weight of 2 is -23.955556
weight of 3 is 1.000000
used!
weight of 0 is 1.025492
weight of 1 is -1.366841
weight of 2 is -23.955556
weight of 3 is 2.000000
used!
accept
accept
weight of 0 is 0.524571
weight of 1 is -1.380286
weight of 2 is -24.844444
weight of 3 is 1.000000
not used!
weight of 0 is 0.023879
weight of 1 is -1.380395
weight of 2 is -25.733333
weight of 3 is 0.000000
not used!
accept
accept
weight of 0 is -0.476665
weight of 1 is -1.411011
weight of 2 is -25.733333
weight of 3 is -1.000000
not used!
weight of 0 is -0.977589
weight of 1 is -1.441947
weight of 2 is -26.644444
weight of 3 is -2.000000
not used!
weight of 0 is -1.478509
weight of 1 is -1.483029
weight of 2 is -27.622222
weight of 3 is -3.000000
not used!
weight of 0 is -1.979578
weight of 1 is -1.484648
weight of 2 is -28.866667
weight of 3 is -4.000000
not used!
deny
deny
deny
deny
deny
deny
weight of 0 is -2.480122
weight of 1 is -1.485118
weight of 2 is -28.866667
weight of 3 is -5.000000
not used!
deny
deny
deny
deny
weight of 0 is -1.979578
weight of 1 is -1.485061
weight of 2 is -28.866667
weight of 3 is -4.000000
used!
weight of 0 is -1.479034
weight of 1 is -1.485005
weight of 2 is -28.866667
weight of 3 is -3.000000
used!
deny
deny
deny
deny
weight of 0 is -0.978490
weight of 1 is -1.484874
weight of 2 is -28.866667
weight of 3 is -2.000000
used!
weight of 0 is -0.477946
weight of 1 is -1.484742
weight of 2 is -28.866667
weight of 3 is -1.000000
used!
deny
deny
deny
deny
weight of 0 is 0.022598
weight of 1 is -1.484723
weight of 2 is -28.866667
weight of 3 is 0.000000
used!
weight of 0 is 0.523142
weight of 1 is -1.484704
weight of 2 is -28.866667
weight of 3 is 1.000000
used!
accept
accept
accept
accept
deny
deny
deny
deny
weight of 0 is 0.022100
weight of 1 is -1.525271
weight of 2 is -29.222222
weight of 3 is 0.000000
not used!
deny
deny
weight of 0 is -0.478444
weight of 1 is -1.565819
weight of 2 is -29.222222
weight of 3 is -1.000000
not used!
deny
deny
deny
deny
deny
deny
deny
deny
deny
deny
deny
deny
deny
deny
deny
deny
deny
deny
deny
deny
weight of 0 is 0.022436
weight of 1 is -1.565762
weight of 2 is -28.333333
weight of 3 is 0.000000
used!
weight of 0 is 0.523317
weight of 1 is -1.565706
weight of 2 is -27.444444
weight of 3 is 1.000000
used!
accept
accept
weight of 0 is 1.023861
weight of 1 is -1.546671
weight of 2 is -27.444444
weight of 3 is 2.000000
used!
weight of 0 is 1.524406
weight of 1 is -1.527636
weight of 2 is -27.444444
weight of 3 is 3.000000
used!
accept
accept
deny
deny
weight of 0 is 1.023861
weight of 1 is -1.558163
weight of 2 is -27.444444
weight of 3 is 2.000000
not used!
deny
deny
accept
accept
accept
accept
accept
accept
accept
accept
accept
accept
accept
accept
deny
deny
accept
accept
deny
deny
accept
accept
deny
deny
deny
deny
deny
deny
deny
deny
deny
deny
deny
deny
deny
deny
deny
deny
deny
deny
accept
accept
deny
deny
deny
deny
weight of 0 is 1.524732
weight of 1 is -1.552106
weight of 2 is -26.111111
weight of 3 is 3.000000
used!
weight of 0 is 2.025603
weight of 1 is -1.546049
weight of 2 is -24.777778
weight of 3 is 4.000000
used!
deny
deny
weight of 0 is 1.525059
weight of 1 is -1.546143
weight of 2 is -24.777778
weight of 3 is 3.000000
not used!
deny
deny
deny
deny
accept
accept
accept
accept
accept
accept
weight of 0 is 1.024515
weight of 1 is -1.546331
weight of 2 is -24.777778
weight of 3 is 2.000000
not used!
weight of 0 is 0.523557
weight of 1 is -1.579941
weight of 2 is -24.777778
weight of 3 is 1.000000
not used!
accept
accept
accept
accept
weight of 0 is 1.024501
weight of 1 is -1.574150
weight of 2 is -24.466667
weight of 3 is 2.000000
used!
weight of 0 is 1.525445
weight of 1 is -1.568358
weight of 2 is -24.155556
weight of 3 is 3.000000
used!
deny
deny
accept
accept
accept
accept
weight of 0 is 1.024901
weight of 1 is -1.593833
weight of 2 is -24.155556
weight of 3 is 2.000000
not used!
accept
accept
deny
deny
accept
accept
accept
accept
accept
accept
accept
accept
deny
deny
weight of 0 is 1.525799
weight of 1 is -1.580660
weight of 2 is -23.800000
weight of 3 is 3.000000
used!
weight of 0 is 2.026697
weight of 1 is -1.567487
weight of 2 is -23.444444
weight of 3 is 4.000000
used!
weight of 0 is 1.526152
weight of 1 is -1.568388
weight of 2 is -23.444444
weight of 3 is 3.000000
not used!
deny
deny
weight of 0 is 2.027155
weight of 1 is -1.556024
weight of 2 is -22.200000
weight of 3 is 4.000000
used!
weight of 0 is 2.528158
weight of 1 is -1.543660
weight of 2 is -20.955556
weight of 3 is 5.000000
used!
deny
deny
weight of 0 is 3.029209
weight of 1 is -1.502400
weight of 2 is -20.777778
weight of 3 is 6.000000
used!
weight of 0 is 3.530260
weight of 1 is -1.461141
weight of 2 is -20.600000
weight of 3 is 7.000000
used!
accept
accept
weight of 0 is 4.031311
weight of 1 is -1.461118
weight of 2 is -20.066667
weight of 3 is 8.000000
used!
weight of 0 is 4.532362
weight of 1 is -1.461094
weight of 2 is -19.533333
weight of 3 is 9.000000
used!
accept
accept
accept
accept
accept
accept
deny
deny
deny
deny
accept
accept
weight of 0 is 4.031818
weight of 1 is -1.461113
weight of 2 is -19.533333
weight of 3 is 8.000000
not used!
accept
accept
weight of 0 is 3.531274
weight of 1 is -1.476237
weight of 2 is -19.533333
weight of 3 is 7.000000
not used!
accept
accept
weight of 0 is 3.030373
weight of 1 is -1.505341
weight of 2 is -19.711111
weight of 3 is 6.000000
not used!
weight of 0 is 2.529828
weight of 1 is -1.522289
weight of 2 is -19.711111
weight of 3 is 5.000000
not used!
accept
accept
weight of 0 is 2.029284
weight of 1 is -1.554638
weight of 2 is -19.711111
weight of 3 is 4.000000
not used!
deny
deny
deny
deny
deny
deny
deny
deny
weight of 0 is 2.530264
weight of 1 is -1.554616
weight of 2 is -19.000000
weight of 3 is 5.000000
used!
weight of 0 is 3.031244
weight of 1 is -1.554594
weight of 2 is -18.288889
weight of 3 is 6.000000
used!
deny
deny
deny
deny
weight of 0 is 3.532222
weight of 1 is -1.554551
weight of 2 is -17.222222
weight of 3 is 7.000000
used!
weight of 0 is 4.033201
weight of 1 is -1.554509
weight of 2 is -16.155556
weight of 3 is 8.000000
used!
accept
accept
weight of 0 is 4.534181
weight of 1 is -1.552878
weight of 2 is -15.177778
weight of 3 is 9.000000
used!
weight of 0 is 5.035161
weight of 1 is -1.551247
weight of 2 is -14.200000
weight of 3 is 10.000000
used!
accept
accept
accept
accept
accept
accept
accept
accept
accept
accept
accept
accept
accept
accept
deny
deny
accept
accept
accept
accept
weight of 0 is 5.536140
weight of 1 is -1.551192
weight of 2 is -13.400000
weight of 3 is 11.000000
used!
weight of 0 is 6.037119
weight of 1 is -1.551137
weight of 2 is -12.600000
weight of 3 is 12.000000
used!
accept
accept
deny
deny
accept
accept
weight of 0 is 5.536574
weight of 1 is -1.566897
weight of 2 is -12.600000
weight of 3 is 11.000000
not used!
accept
accept
warn: ignoring syscall mprotect(...)
accept
accept
deny
deny
accept
accept
weight of 0 is 5.036030
weight of 1 is -1.592680
weight of 2 is -12.600000
weight of 3 is 10.000000
not used!
weight of 0 is 4.535486
weight of 1 is -1.592699
weight of 2 is -12.600000
weight of 3 is 9.000000
not used!
accept
accept
deny
deny
weight of 0 is 4.034942
weight of 1 is -1.592812
weight of 2 is -12.600000
weight of 3 is 8.000000
not used!
accept
accept
accept
accept
accept
accept
accept
accept
weight of 0 is 3.534353
weight of 1 is -1.596269
weight of 2 is -12.600000
weight of 3 is 7.000000
not used!
accept
accept
accept
accept
accept
accept
weight of 0 is 3.033809
weight of 1 is -1.632200
weight of 2 is -12.600000
weight of 3 is 6.000000
not used!
accept
accept
accept
accept
accept
accept
accept
accept
weight of 0 is 2.532937
weight of 1 is -1.637914
weight of 2 is -12.688889
weight of 3 is 5.000000
not used!
accept
accept
accept
accept
accept
accept
deny
deny
weight of 0 is 2.032393
weight of 1 is -1.638140
weight of 2 is -12.688889
weight of 3 is 4.000000
not used!
accept
accept
weight of 0 is 1.531496
weight of 1 is -1.670322
weight of 2 is -12.688889
weight of 3 is 3.000000
not used!
accept
accept
accept
accept
weight of 0 is 2.044345
weight of 1 is -0.669141
weight of 2 is -12.155556
weight of 3 is 4.000000
used!
weight of 0 is 2.557194
weight of 1 is 0.332040
weight of 2 is -11.622222
weight of 3 is 5.000000
used!
accept
accept
accept
accept
accept
accept
accept
accept
accept
accept
accept
accept
accept
accept
accept
accept
deny
deny
accept
accept
weight of 0 is 2.056620
weight of 1 is 0.304423
weight of 2 is -11.622222
weight of 3 is 4.000000
not used!
weight of 0 is 1.556075
weight of 1 is 0.276637
weight of 2 is -11.622222
weight of 3 is 3.000000
not used!
accept
accept
accept
accept
accept
accept
weight of 0 is 1.055531
weight of 1 is 0.235377
weight of 2 is -11.622222
weight of 3 is 2.000000
not used!
weight of 0 is 0.554479
weight of 1 is 0.194064
weight of 2 is -11.622222
weight of 3 is 1.000000
not used!
weight of 0 is 0.053935
weight of 1 is 0.178208
weight of 2 is -11.622222
weight of 3 is 0.000000
not used!
deny
deny
weight of 0 is -0.446609
weight of 1 is 0.141169
weight of 2 is -11.622222
weight of 3 is -1.000000
not used!
deny
deny
deny
deny
deny
deny
deny
deny
deny
deny
weight of 0 is -0.947589
weight of 1 is 0.141144
weight of 2 is -11.977778
weight of 3 is -2.000000
not used!
deny
deny
deny
deny
deny
deny
deny
deny
deny
deny
deny
deny
deny
deny
weight of 0 is -1.448341
weight of 1 is 0.141055
weight of 2 is -11.977778
weight of 3 is -3.000000
not used!
deny
deny
weight of 0 is -1.948885
weight of 1 is 0.099328
weight of 2 is -11.977778
weight of 3 is -4.000000
not used!
deny
deny
weight of 0 is -1.447996
weight of 1 is 0.105857
weight of 2 is -11.533333
weight of 3 is -3.000000
used!
weight of 0 is -0.947107
weight of 1 is 0.112385
weight of 2 is -11.088889
weight of 3 is -2.000000
used!
deny
deny
weight of 0 is -0.446128
weight of 1 is 0.112386
weight of 2 is -11.088889
weight of 3 is -1.000000
used!
weight of 0 is 0.054852
weight of 1 is 0.112387
weight of 2 is -11.088889
weight of 3 is 0.000000
used!
accept
accept
accept
accept
weight of 0 is 0.555831
weight of 1 is 0.119651
weight of 2 is -9.733333
weight of 3 is 1.000000
used!
weight of 0 is 1.056811
weight of 1 is 0.126915
weight of 2 is -8.377778
weight of 3 is 2.000000
used!
weight of 0 is 0.555758
weight of 1 is 0.085489
weight of 2 is -8.377778
weight of 3 is 1.000000
not used!
accept
accept
weight of 0 is 0.055214
weight of 1 is 0.062737
weight of 2 is -8.377778
weight of 3 is 0.000000
not used!
accept
accept
deny
deny
deny
deny
deny
deny
weight of 0 is 0.556198
weight of 1 is 0.080034
weight of 2 is -7.488889
weight of 3 is 1.000000
used!
weight of 0 is 1.057182
weight of 1 is 0.097330
weight of 2 is -6.600000
weight of 3 is 2.000000
used!
weight of 0 is 0.556638
weight of 1 is -0.908579
weight of 2 is -6.600000
weight of 3 is 1.000000
not used!
deny
deny
deny
deny
weight of 0 is 1.057621
weight of 1 is -0.908559
weight of 2 is -5.355556
weight of 3 is 2.000000
used!
weight of 0 is 1.558604
weight of 1 is -0.908539
weight of 2 is -4.111111
weight of 3 is 3.000000
used!
accept
accept
weight of 0 is 2.059588
weight of 1 is -0.908517
weight of 2 is -2.955556
weight of 3 is 4.000000
used!
weight of 0 is 2.560573
weight of 1 is -0.908494
weight of 2 is -1.800000
weight of 3 is 5.000000
used!
accept
accept
weight of 0 is 2.047724
weight of 1 is -1.909990
weight of 2 is -1.977778
weight of 3 is 4.000000
not used!
weight of 0 is 1.534876
weight of 1 is -1.910009
weight of 2 is -2.155556
weight of 3 is 3.000000
not used!
accept
accept
weight of 0 is 2.035859
weight of 1 is -1.909954
weight of 2 is -1.177778
weight of 3 is 4.000000
used!
weight of 0 is 2.536842
weight of 1 is -1.909899
weight of 2 is -0.200000
weight of 3 is 5.000000
used!
warn: ignoring syscall mprotect(...)
weight of 0 is 2.023993
weight of 1 is -2.870549
weight of 2 is -0.377778
weight of 3 is 4.000000
not used!
weight of 0 is 1.511143
weight of 1 is -2.870568
weight of 2 is -0.555556
weight of 3 is 3.000000
not used!
weight of 0 is 0.998293
weight of 1 is -2.870586
weight of 2 is -0.733333
weight of 3 is 2.000000
not used!
weight of 0 is 0.497245
weight of 1 is -3.831220
weight of 2 is -0.733333
weight of 3 is 1.000000
not used!
deny
deny
accept
accept
accept
accept
deny
deny
accept
accept
accept
accept
accept
accept
weight of 0 is -0.003300
weight of 1 is -3.892065
weight of 2 is -0.733333
weight of 3 is 0.000000
not used!
accept
accept
deny
deny
accept
accept
accept
accept
weight of 0 is 0.521286
weight of 1 is -1.976481
weight of 2 is -0.733333
weight of 3 is 1.000000
used!
weight of 0 is 1.045872
weight of 1 is -0.060897
weight of 2 is -0.733333
weight of 3 is 2.000000
used!
accept
accept
weight of 0 is 0.545328
weight of 1 is -0.068975
weight of 2 is -0.733333
weight of 3 is 1.000000
not used!
weight of 0 is 0.044784
weight of 1 is -0.069032
weight of 2 is -0.733333
weight of 3 is 0.000000
not used!
accept
accept
accept
accept
accept
accept
accept
accept
accept
accept
accept
accept
weight of 0 is -0.456105
weight of 1 is -0.076331
weight of 2 is -0.822222
weight of 3 is -1.000000
not used!
weight of 0 is -0.957085
weight of 1 is -0.083600
weight of 2 is -0.844444
weight of 3 is -2.000000
not used!
deny
deny
deny
deny
deny
deny
deny
deny
deny
deny
deny
deny
deny
deny
deny
deny
deny
deny
deny
deny
deny
deny
deny
deny
deny
deny
weight of 0 is -0.456188
weight of 1 is -0.075373
weight of 2 is -0.577778
weight of 3 is -1.000000
used!
weight of 0 is 0.044709
weight of 1 is -0.067145
weight of 2 is -0.311111
weight of 3 is 0.000000
used!
accept
accept
accept
accept
accept
accept
weight of 0 is -0.455835
weight of 1 is -0.119393
weight of 2 is -0.311111
weight of 3 is -1.000000
not used!
deny
deny
weight of 0 is -0.956380
weight of 1 is -0.140792
weight of 2 is -0.311111
weight of 3 is -2.000000
not used!
deny
deny
deny
deny
deny
deny
deny
deny
weight of 0 is -1.457364
weight of 1 is -0.140816
weight of 2 is -0.844444
weight of 3 is -3.000000
not used!
deny
deny
deny
deny
deny
deny
weight of 0 is -0.932830
weight of 1 is -0.140796
weight of 2 is -0.311111
weight of 3 is -2.000000
used!
weight of 0 is -0.408296
weight of 1 is -0.140776
weight of 2 is 0.222222
weight of 3 is -1.000000
used!
weight of 0 is -0.909052
weight of 1 is -0.140863
weight of 2 is 0.222222
weight of 3 is -2.000000
not used!
weight of 0 is -1.410110
weight of 1 is -0.140887
weight of 2 is -0.844444
weight of 3 is -3.000000
not used!
deny
deny
weight of 0 is -0.885575
weight of 1 is -0.140667
weight of 2 is -0.400000
weight of 3 is -2.000000
used!
weight of 0 is -0.361040
weight of 1 is -0.140448
weight of 2 is 0.044444
weight of 3 is -1.000000
used!
deny
deny
deny
deny
warn: ignoring syscall mprotect(...)
weight of 0 is -0.885329
weight of 1 is -0.140460
weight of 2 is 0.044444
weight of 3 is -2.000000
not used!
deny
deny
deny
deny
weight of 0 is -1.386381
weight of 1 is -0.140522
weight of 2 is -0.844444
weight of 3 is -3.000000
not used!
deny
deny
weight of 0 is -0.854159
weight of 1 is 2.422907
weight of 2 is 0.222222
weight of 3 is -2.000000
used!
weight of 0 is -0.321937
weight of 1 is 4.986335
weight of 2 is 1.288889
weight of 3 is -1.000000
used!
deny
deny
weight of 0 is 0.210285
weight of 1 is 4.986339
weight of 2 is 1.288889
weight of 3 is 0.000000
used!
weight of 0 is 0.742508
weight of 1 is 4.986344
weight of 2 is 1.288889
weight of 3 is 1.000000
used!
weight of 0 is 0.241455
weight of 1 is 4.986283
weight of 2 is 0.044444
weight of 3 is 0.000000
not used!
accept
accept
weight of 0 is 0.773677
weight of 1 is 4.986302
weight of 2 is 0.044444
weight of 3 is 1.000000
used!
weight of 0 is 1.305900
weight of 1 is 4.986321
weight of 2 is 0.044444
weight of 3 is 2.000000
used!
weight of 0 is 0.804848
weight of 1 is 4.986215
weight of 2 is -0.311111
weight of 3 is 1.000000
not used!
accept
accept
weight of 0 is 0.303796
weight of 1 is 4.986177
weight of 2 is -0.666667
weight of 3 is 0.000000
not used!
accept
accept
weight of 0 is -0.220790
weight of 1 is 4.986159
weight of 2 is -0.666667
weight of 3 is -1.000000
not used!
deny
deny
weight of 0 is -0.745376
weight of 1 is 4.986140
weight of 2 is -0.666667
weight of 3 is -2.000000
not used!
weight of 0 is -1.269963
weight of 1 is 4.986121
weight of 2 is -0.666667
weight of 3 is -3.000000
not used!
deny
deny
deny
deny
weight of 0 is -0.745361
weight of 1 is 5.630410
weight of 2 is 0.044444
weight of 3 is -2.000000
used!
weight of 0 is -0.220758
weight of 1 is 6.274698
weight of 2 is 0.755556
weight of 3 is -1.000000
used!
deny
deny
deny
deny
weight of 0 is 0.303774
weight of 1 is 8.212975
weight of 2 is 1.644444
weight of 3 is 0.000000
used!
weight of 0 is 0.828307
weight of 1 is 10.151252
weight of 2 is 2.533333
weight of 3 is 1.000000
used!
accept
accept
accept
accept
weight of 0 is 1.352910
weight of 1 is 10.151334
weight of 2 is 3.600000
weight of 3 is 2.000000
used!
weight of 0 is 1.877513
weight of 1 is 10.151416
weight of 2 is 4.666667
weight of 3 is 3.000000
used!
accept
accept
weight of 0 is 2.402115
weight of 1 is 10.151461
weight of 2 is 5.911111
weight of 3 is 4.000000
used!
weight of 0 is 2.926718
weight of 1 is 10.151505
weight of 2 is 7.155556
weight of 3 is 5.000000
used!
accept
accept
accept
accept
accept
accept
accept
accept
weight of 0 is 3.451253
weight of 1 is 10.151528
weight of 2 is 7.155556
weight of 3 is 6.000000
used!
weight of 0 is 3.975788
weight of 1 is 10.151550
weight of 2 is 7.155556
weight of 3 is 7.000000
used!
weight of 0 is 3.462656
weight of 1 is 9.224741
weight of 2 is 6.800000
weight of 3 is 6.000000
not used!
accept
accept
weight of 0 is 2.970843
weight of 1 is 7.507184
weight of 2 is 6.777778
weight of 3 is 5.000000
not used!
weight of 0 is 2.469836
weight of 1 is 6.779856
weight of 2 is 5.533333
weight of 3 is 4.000000
not used!
weight of 0 is 1.969292
weight of 1 is 6.740443
weight of 2 is 5.533333
weight of 3 is 3.000000
not used!
weight of 0 is 1.456313
weight of 1 is 5.705405
weight of 2 is 4.844444
weight of 3 is 2.000000
not used!
weight of 0 is 0.955769
weight of 1 is 4.669202
weight of 2 is 4.844444
weight of 3 is 1.000000
not used!
accept
accept
accept
accept
accept
accept
accept
accept
accept
accept
accept
accept
accept
accept
accept
accept
weight of 0 is 0.454775
weight of 1 is 4.661500
weight of 2 is 4.822222
weight of 3 is 0.000000
not used!
accept
accept
weight of 0 is -0.046123
weight of 1 is 4.653819
weight of 2 is 4.555556
weight of 3 is -1.000000
not used!
accept
accept
weight of 0 is -0.547226
weight of 1 is 4.651048
weight of 2 is 3.555556
weight of 3 is -2.000000
not used!
deny
deny
accept
accept
deny
deny
accept
accept
deny
deny
accept
accept
accept
accept
deny
deny
accept
accept
accept
accept
accept
accept
accept
accept
accept
accept
warn: ignoring syscall mprotect(...)
accept
accept
deny
deny
deny
deny
deny
deny
weight of 0 is -0.000535
weight of 1 is 4.651095
weight of 2 is 3.555556
weight of 3 is -1.000000
used!
weight of 0 is 0.546157
weight of 1 is 4.651142
weight of 2 is 3.555556
weight of 3 is 0.000000
used!
accept
accept
weight of 0 is 1.092848
weight of 1 is 4.651161
weight of 2 is 3.555556
weight of 3 is 1.000000
used!
weight of 0 is 1.639539
weight of 1 is 4.651180
weight of 2 is 3.555556
weight of 3 is 2.000000
used!
accept
accept
weight of 0 is 1.107315
weight of 1 is 4.651124
weight of 2 is 3.555556
weight of 3 is 1.000000
not used!
accept
accept
accept
accept
accept
accept
weight of 0 is 0.582713
weight of 1 is 4.006882
weight of 2 is 2.488889
weight of 3 is 0.000000
not used!
accept
accept
weight of 0 is 0.058110
weight of 1 is 4.006863
weight of 2 is 1.422222
weight of 3 is -1.000000
not used!
deny
deny
weight of 0 is -0.474409
weight of 1 is 3.362584
weight of 2 is 1.244444
weight of 3 is -2.000000
not used!
deny
deny
weight of 0 is -1.006928
weight of 1 is 3.362565
weight of 2 is 1.066667
weight of 3 is -3.000000
not used!
deny
deny
weight of 0 is -0.460232
weight of 1 is 3.362621
weight of 2 is 1.066667
weight of 3 is -2.000000
used!
weight of 0 is 0.086464
weight of 1 is 3.362678
weight of 2 is 1.066667
weight of 3 is -1.000000
used!
weight of 0 is -0.446055
weight of 1 is 3.362659
weight of 2 is 0.888889
weight of 3 is -2.000000
not used!
deny
deny
weight of 0 is 0.100641
weight of 1 is 3.362678
weight of 2 is 0.888889
weight of 3 is -1.000000
used!
weight of 0 is 0.647337
weight of 1 is 3.362697
weight of 2 is 0.888889
weight of 3 is 0.000000
used!
accept
accept
weight of 0 is 1.194033
weight of 1 is 3.362715
weight of 2 is 0.888889
weight of 3 is 1.000000
used!
weight of 0 is 1.740730
weight of 1 is 3.362734
weight of 2 is 0.888889
weight of 3 is 2.000000
used!
weight of 0 is 1.216125
weight of 1 is 2.718617
weight of 2 is 0.355556
weight of 3 is 1.000000
not used!
weight of 0 is 0.691575
weight of 1 is 2.717577
weight of 2 is -0.711111
weight of 3 is 0.000000
not used!
accept
accept
accept
accept
accept
accept
accept
accept
accept
accept
accept
accept
accept
accept
accept
accept
accept
accept
accept
accept
accept
accept
accept
accept
weight of 0 is 0.191031
weight of 1 is 0.770298
weight of 2 is -0.711111
weight of 3 is -1.000000
not used!
deny
deny
weight of 0 is -0.333328
weight of 1 is -1.179164
weight of 2 is -0.733333
weight of 3 is -2.000000
not used!
deny
deny
deny
deny
deny
deny
deny
deny
weight of 0 is -0.834232
weight of 1 is -3.091884
weight of 2 is -1.711111
weight of 3 is -3.000000
not used!
weight of 0 is -1.335240
weight of 1 is -3.100153
weight of 2 is -2.866667
weight of 3 is -4.000000
not used!
weight of 0 is -1.836252
weight of 1 is -3.108521
weight of 2 is -3.888889
weight of 3 is -5.000000
not used!
weight of 0 is -2.337160
weight of 1 is -3.116805
weight of 2 is -5.044444
weight of 3 is -6.000000
not used!
weight of 0 is -2.838173
weight of 1 is -3.125265
weight of 2 is -5.266667
weight of 3 is -7.000000
not used!
weight of 0 is -3.339185
weight of 1 is -3.125368
weight of 2 is -6.244444
weight of 3 is -8.000000
not used!
deny
deny
weight of 0 is -3.840197
weight of 1 is -3.125391
weight of 2 is -6.911111
weight of 3 is -9.000000
not used!
deny
deny
deny
deny
deny
deny
deny
deny
weight of 0 is -3.339653
weight of 1 is -3.109037
weight of 2 is -6.911111
weight of 3 is -8.000000
used!
weight of 0 is -2.839109
weight of 1 is -3.092682
weight of 2 is -6.911111
weight of 3 is -7.000000
used!
deny
deny
deny
deny
deny
deny
deny
deny
deny
deny
weight of 0 is -3.363650
weight of 1 is -3.092689
weight of 2 is -8.155556
weight of 3 is -8.000000
not used!
deny
deny
weight of 0 is -2.839340
weight of 1 is -1.158295
weight of 2 is -8.155556
weight of 3 is -7.000000
used!
weight of 0 is -2.315031
weight of 1 is 0.776100
weight of 2 is -8.155556
weight of 3 is -6.000000
used!
weight of 0 is -2.839573
weight of 1 is 0.775769
weight of 2 is -8.866667
weight of 3 is -7.000000
not used!
deny
deny
deny
deny
weight of 0 is -2.339029
weight of 1 is 0.776239
weight of 2 is -8.866667
weight of 3 is -6.000000
used!
weight of 0 is -1.838485
weight of 1 is 0.776708
weight of 2 is -8.866667
weight of 3 is -5.000000
used!
deny
deny
weight of 0 is -1.337941
weight of 1 is 2.727335
weight of 2 is -8.866667
weight of 3 is -4.000000
used!
weight of 0 is -0.837397
weight of 1 is 4.677962
weight of 2 is -8.866667
weight of 3 is -3.000000
used!
accept
accept
weight of 0 is -0.313087
weight of 1 is 6.628608
weight of 2 is -8.866667
weight of 3 is -2.000000
used!
weight of 0 is 0.211223
weight of 1 is 8.579254
weight of 2 is -8.866667
weight of 3 is -1.000000
used!
accept
accept
weight of 0 is 0.711768
weight of 1 is 8.606312
weight of 2 is -8.866667
weight of 3 is 0.000000
used!
weight of 0 is 1.212312
weight of 1 is 8.633371
weight of 2 is -8.866667
weight of 3 is 1.000000
used!
weight of 0 is 0.687697
weight of 1 is 8.633285
weight of 2 is -9.933333
weight of 3 is 0.000000
not used!
weight of 0 is 0.186666
weight of 1 is 6.713861
weight of 2 is -10.822222
weight of 3 is -1.000000
not used!
weight of 0 is -0.337948
weight of 1 is 4.794325
weight of 2 is -11.888889
weight of 3 is -2.000000
not used!
weight of 0 is -0.838824
weight of 1 is 2.874774
weight of 2 is -13.133333
weight of 3 is -3.000000
not used!
weight of 0 is -1.339570
weight of 1 is 2.874756
weight of 2 is -14.377778
weight of 3 is -4.000000
not used!
deny
deny
deny
deny
deny
deny
deny
deny
weight of 0 is -0.839026
weight of 1 is 2.875263
weight of 2 is -14.377778
weight of 3 is -3.000000
used!
weight of 0 is -0.338482
weight of 1 is 2.875770
weight of 2 is -14.377778
weight of 3 is -2.000000
used!
deny
deny
weight of 0 is 0.162062
weight of 1 is 2.875789
weight of 2 is -14.377778
weight of 3 is -1.000000
used!
weight of 0 is 0.662607
weight of 1 is 2.875808
weight of 2 is -14.377778
weight of 3 is 0.000000
used!
accept
accept
weight of 0 is 1.163151
weight of 1 is 2.875827
weight of 2 is -14.377778
weight of 3 is 1.000000
used!
weight of 0 is 1.663695
weight of 1 is 2.875845
weight of 2 is -14.377778
weight of 3 is 2.000000
used!
accept
accept
accept
accept
accept
accept
accept
accept
accept
accept
accept
accept
accept
accept
accept
accept
weight of 0 is 1.116998
weight of 1 is 2.875827
weight of 2 is -14.377778
weight of 3 is 1.000000
not used!
accept
accept
accept
accept
weight of 0 is 0.570035
weight of 1 is 2.873121
weight of 2 is -14.377778
weight of 3 is 0.000000
not used!
accept
accept
accept
accept
weight of 0 is 0.045428
weight of 1 is 2.873060
weight of 2 is -14.733333
weight of 3 is -1.000000
not used!
weight of 0 is -0.501536
weight of 1 is 1.053404
weight of 2 is -14.733333
weight of 3 is -2.000000
not used!
weight of 0 is -1.048500
weight of 1 is 1.053385
weight of 2 is -14.733333
weight of 3 is -3.000000
not used!
weight of 0 is -1.573107
weight of 1 is -0.766358
weight of 2 is -15.622222
weight of 3 is -4.000000
not used!
weight of 0 is -2.120071
weight of 1 is -2.586120
weight of 2 is -15.622222
weight of 3 is -5.000000
not used!
deny
deny
deny
deny
deny
deny
deny
deny
weight of 0 is -1.619527
weight of 1 is -1.886373
weight of 2 is -15.622222
weight of 3 is -4.000000
used!
weight of 0 is -1.118982
weight of 1 is -1.186627
weight of 2 is -15.622222
weight of 3 is -3.000000
used!
deny
deny
weight of 0 is -1.619527
weight of 1 is -4.964674
weight of 2 is -15.622222
weight of 3 is -4.000000
not used!
deny
deny
weight of 0 is -1.118982
weight of 1 is -4.964618
weight of 2 is -15.622222
weight of 3 is -3.000000
used!
weight of 0 is -0.618438
weight of 1 is -4.964561
weight of 2 is -15.622222
weight of 3 is -2.000000
used!
deny
deny
weight of 0 is -0.117894
weight of 1 is -4.264360
weight of 2 is -15.622222
weight of 3 is -1.000000
used!
weight of 0 is 0.382650
weight of 1 is -3.564158
weight of 2 is -15.622222
weight of 3 is 0.000000
used!
weight of 0 is -0.149819
weight of 1 is -6.167904
weight of 2 is -16.866667
weight of 3 is -1.000000
not used!
weight of 0 is -0.682288
weight of 1 is -6.167906
weight of 2 is -16.866667
weight of 3 is -2.000000
not used!
deny
deny
deny
deny
deny
deny
deny
deny
deny
deny
weight of 0 is -0.181743
weight of 1 is -6.167493
weight of 2 is -16.866667
weight of 3 is -1.000000
used!
weight of 0 is 0.318801
weight of 1 is -6.167079
weight of 2 is -16.866667
weight of 3 is 0.000000
used!
accept
accept
weight of 0 is 0.819345
weight of 1 is -4.217549
weight of 2 is -16.866667
weight of 3 is 1.000000
used!
weight of 0 is 1.319889
weight of 1 is -2.268019
weight of 2 is -16.866667
weight of 3 is 2.000000
used!
deny
deny
accept
accept
weight of 0 is 1.820433
weight of 1 is -2.267981
weight of 2 is -16.866667
weight of 3 is 3.000000
used!
weight of 0 is 2.320978
weight of 1 is -2.267944
weight of 2 is -16.866667
weight of 3 is 4.000000
used!
accept
accept
deny
deny
accept
accept
deny
deny
accept
accept
deny
deny
accept
accept
accept
accept
deny
deny
accept
accept
deny
deny
deny
deny
deny
deny
accept
accept
accept
accept
accept
accept
accept
accept
deny
deny
accept
accept
deny
deny
accept
accept
deny
deny
accept
accept
deny
deny
accept
accept
accept
accept
deny
deny
deny
deny
accept
accept
weight of 0 is 2.822979
weight of 1 is -2.265452
weight of 2 is -16.311111
weight of 3 is 5.000000
used!
weight of 0 is 3.324980
weight of 1 is -2.262961
weight of 2 is -15.755556
weight of 3 is 6.000000
used!
accept
accept
accept
accept
deny
deny
accept
accept
accept
accept
accept
accept
accept
accept
deny
deny
accept
accept
deny
deny
accept
accept
deny
deny
deny
deny
deny
deny
accept
accept
weight of 0 is 3.849435
weight of 1 is -0.316680
weight of 2 is -14.777778
weight of 3 is 7.000000
used!
weight of 0 is 4.373890
weight of 1 is 1.629602
weight of 2 is -13.800000
weight of 3 is 8.000000
used!
accept
accept
accept
accept
accept
accept
accept
accept
accept
accept
accept
accept
deny
deny
deny
deny
accept
accept
deny
deny
weight of 0 is 3.873346
weight of 1 is -0.321030
weight of 2 is -13.800000
weight of 3 is 7.000000
not used!
accept
accept
deny
deny
accept
accept
deny
deny
accept
accept
accept
accept
weight of 0 is 3.372801
weight of 1 is -0.321049
weight of 2 is -13.800000
weight of 3 is 6.000000
not used!
weight of 0 is 2.872257
weight of 1 is -0.321612
weight of 2 is -13.800000
weight of 3 is 5.000000
not used!
deny
deny
weight of 0 is 2.371713
weight of 1 is -0.321650
weight of 2 is -13.800000
weight of 3 is 4.000000
not used!
weight of 0 is 1.871169
weight of 1 is -0.321932
weight of 2 is -13.800000
weight of 3 is 3.000000
not used!
accept
accept
weight of 0 is 2.418085
weight of 1 is 0.834422
weight of 2 is -12.644444
weight of 3 is 4.000000
used!
weight of 0 is 2.965001
weight of 1 is 1.990775
weight of 2 is -11.488889
weight of 3 is 5.000000
used!
weight of 0 is 2.464457
weight of 1 is 1.984613
weight of 2 is -11.488889
weight of 3 is 4.000000
not used!
accept
accept
accept
accept
accept
accept
weight of 0 is 1.963913
weight of 1 is 1.983899
weight of 2 is -11.488889
weight of 3 is 3.000000
not used!
accept
accept
weight of 0 is 1.463369
weight of 1 is 1.970485
weight of 2 is -11.488889
weight of 3 is 2.000000
not used!
accept
accept
accept
accept
accept
accept
accept
accept
accept
accept
accept
accept
accept
accept
accept
accept
accept
accept
accept
accept
accept
accept
accept
accept
accept
accept
accept
accept
accept
accept
accept
accept
weight of 0 is 0.971554
weight of 1 is 1.270490
weight of 2 is -11.488889
weight of 3 is 1.000000
not used!
accept
accept
accept
accept
accept
accept
accept
accept
accept
accept
accept
accept
accept
accept
accept
accept
weight of 0 is 0.469554
weight of 1 is 1.270447
weight of 2 is -11.644444
weight of 3 is 0.000000
not used!
accept
accept
accept
accept
weight of 0 is -0.030991
weight of 1 is 1.141028
weight of 2 is -11.644444
weight of 3 is -1.000000
not used!
deny
deny
deny
deny
weight of 0 is 0.469553
weight of 1 is 1.141272
weight of 2 is -11.644444
weight of 3 is 0.000000
used!
weight of 0 is 0.970098
weight of 1 is 1.141516
weight of 2 is -11.644444
weight of 3 is 1.000000
used!
accept
accept
deny
deny
weight of 0 is 0.445643
weight of 1 is 1.141467
weight of 2 is -11.733333
weight of 3 is 0.000000
not used!
deny
deny
accept
accept
weight of 0 is -0.054901
weight of 1 is -0.804709
weight of 2 is -11.733333
weight of 3 is -1.000000
not used!
deny
deny
weight of 0 is 0.477910
weight of 1 is 0.336943
weight of 2 is -11.377778
weight of 3 is 0.000000
used!
weight of 0 is 1.010721
weight of 1 is 1.478594
weight of 2 is -11.022222
weight of 3 is 1.000000
used!
deny
deny
accept
accept
weight of 0 is 1.543532
weight of 1 is 1.478615
weight of 2 is -10.844444
weight of 3 is 2.000000
used!
weight of 0 is 2.076344
weight of 1 is 1.478636
weight of 2 is -10.666667
weight of 3 is 3.000000
used!
accept
accept
weight of 0 is 2.609155
weight of 1 is 1.478658
weight of 2 is -10.311111
weight of 3 is 4.000000
used!
weight of 0 is 3.141967
weight of 1 is 1.478679
weight of 2 is -9.955556
weight of 3 is 5.000000
used!
accept
accept
weight of 0 is 2.639965
weight of 1 is 1.377051
weight of 2 is -9.955556
weight of 3 is 4.000000
not used!
weight of 0 is 2.139660
weight of 1 is 1.228031
weight of 2 is -9.955556
weight of 3 is 3.000000
not used!
accept
accept
weight of 0 is 1.637480
weight of 1 is 1.228023
weight of 2 is -10.333333
weight of 3 is 2.000000
not used!
deny
deny
accept
accept
accept
accept
weight of 0 is 2.170293
weight of 1 is 1.228044
weight of 2 is -9.977778
weight of 3 is 3.000000
used!
weight of 0 is 2.703106
weight of 1 is 1.228066
weight of 2 is -9.622222
weight of 3 is 4.000000
used!
weight of 0 is 2.170525
weight of 1 is 0.558954
weight of 2 is -9.777778
weight of 3 is 3.000000
not used!
weight of 0 is 1.668362
weight of 1 is 0.558940
weight of 2 is -9.866667
weight of 3 is 2.000000
not used!
accept
accept
deny
deny
weight of 0 is 1.143904
weight of 1 is 0.558939
weight of 2 is -9.866667
weight of 3 is 1.000000
not used!
accept
accept
accept
accept
weight of 0 is 1.676718
weight of 1 is 0.558960
weight of 2 is -9.511111
weight of 3 is 2.000000
used!
weight of 0 is 2.209533
weight of 1 is 0.558981
weight of 2 is -9.155556
weight of 3 is 3.000000
used!
accept
accept
accept
accept
accept
accept
accept
accept
accept
accept
weight of 0 is 1.685076
weight of 1 is 0.558890
weight of 2 is -9.155556
weight of 3 is 2.000000
not used!
accept
accept
weight of 0 is 1.171966
weight of 1 is -0.364911
weight of 2 is -9.733333
weight of 3 is 1.000000
not used!
accept
accept
deny
deny
accept
accept
accept
accept
weight of 0 is 1.704783
weight of 1 is -0.364889
weight of 2 is -9.377778
weight of 3 is 2.000000
used!
weight of 0 is 2.237601
weight of 1 is -0.364868
weight of 2 is -9.022222
weight of 3 is 3.000000
used!
accept
accept
accept
accept
weight of 0 is 1.737056
weight of 1 is -2.984495
weight of 2 is -9.022222
weight of 3 is 2.000000
not used!
deny
deny
accept
accept
accept
accept
weight of 0 is 2.269875
weight of 1 is -2.984439
weight of 2 is -8.666667
weight of 3 is 3.000000
used!
weight of 0 is 2.802693
weight of 1 is -2.984382
weight of 2 is -8.311111
weight of 3 is 4.000000
used!
accept
accept
accept
accept
accept
accept
accept
accept
accept
accept
accept
accept
accept
accept
accept
accept
accept
accept
weight of 0 is 2.255780
weight of 1 is -2.984436
weight of 2 is -8.311111
weight of 3 is 3.000000
not used!
accept
accept
weight of 0 is 1.723069
weight of 1 is -2.984441
weight of 2 is -8.311111
weight of 3 is 2.000000
not used!
accept
accept
accept
accept
deny
deny
deny
deny
accept
accept
weight of 0 is 2.255892
weight of 1 is -1.843435
weight of 2 is -8.133333
weight of 3 is 3.000000
used!
weight of 0 is 2.788714
weight of 1 is -0.702429
weight of 2 is -7.955556
weight of 3 is 4.000000
used!
accept
accept
accept
accept
accept
accept
accept
accept
accept
accept
accept
accept
accept
accept
accept
accept
accept
accept
accept
accept
accept
accept
accept
accept
accept
accept
accept
accept
accept
accept
accept
accept
accept
accept
accept
accept
accept
accept
weight of 0 is 2.288170
weight of 1 is -0.702486
weight of 2 is -7.955556
weight of 3 is 3.000000
not used!
accept
accept
accept
accept
accept
accept
accept
accept
accept
accept
accept
accept
weight of 0 is 1.787626
weight of 1 is -0.702542
weight of 2 is -7.955556
weight of 3 is 2.000000
not used!
accept
accept
accept
accept
accept
accept
accept
accept
accept
accept
accept
accept
accept
accept
accept
accept
accept
accept
accept
accept
accept
accept
accept
accept
accept
accept
accept
accept
accept
accept
accept
accept
accept
accept
accept
accept
accept
accept
accept
accept
accept
accept
accept
accept
accept
accept
weight of 0 is 1.240702
weight of 1 is -0.702598
weight of 2 is -7.955556
weight of 3 is 1.000000
not used!
accept
accept
deny
deny
weight of 0 is 0.693777
weight of 1 is -0.702636
weight of 2 is -7.955556
weight of 3 is 0.000000
not used!
deny
deny
weight of 0 is 1.240623
weight of 1 is 0.437738
weight of 2 is -7.422222
weight of 3 is 1.000000
used!
weight of 0 is 1.787470
weight of 1 is 1.578112
weight of 2 is -6.888889
weight of 3 is 2.000000
used!
weight of 0 is 1.286925
weight of 1 is -2.214495
weight of 2 is -6.888889
weight of 3 is 1.000000
not used!
accept
accept
deny
deny
deny
deny
accept
accept
weight of 0 is 1.819762
weight of 1 is -1.074129
weight of 2 is -6.711111
weight of 3 is 2.000000
used!
weight of 0 is 2.352599
weight of 1 is 0.066238
weight of 2 is -6.533333
weight of 3 is 3.000000
used!
accept
accept
weight of 0 is 2.885437
weight of 1 is 0.066259
weight of 2 is -6.177778
weight of 3 is 4.000000
used!
weight of 0 is 3.418274
weight of 1 is 0.066280
weight of 2 is -5.822222
weight of 3 is 5.000000
used!
accept
accept
weight of 0 is 2.917730
weight of 1 is 0.065773
weight of 2 is -5.822222
weight of 3 is 4.000000
not used!
accept
accept
accept
accept
accept
accept
accept
accept
accept
accept
accept
accept
accept
accept
weight of 0 is 2.417185
weight of 1 is 0.057845
weight of 2 is -5.822222
weight of 3 is 3.000000
not used!
accept
accept
accept
accept
accept
accept
accept
accept
accept
accept
accept
accept
accept
accept
accept
accept
accept
accept
accept
accept
weight of 0 is 1.916642
weight of 1 is 0.056905
weight of 2 is -5.822222
weight of 3 is 2.000000
not used!
accept
accept
accept
accept
accept
accept
accept
accept
accept
accept
accept
accept
weight of 0 is 1.416097
weight of 1 is 0.056586
weight of 2 is -5.822222
weight of 3 is 1.000000
not used!
accept
accept
deny
deny
accept
accept
weight of 0 is 1.948942
weight of 1 is 1.196594
weight of 2 is -5.466667
weight of 3 is 2.000000
used!
weight of 0 is 2.481787
weight of 1 is 2.336601
weight of 2 is -5.111111
weight of 3 is 3.000000
used!
accept
accept
accept
accept
accept
accept
accept
accept
weight of 0 is 1.981243
weight of 1 is 2.336582
weight of 2 is -5.111111
weight of 3 is 2.000000
not used!
accept
accept
accept
accept
accept
accept
weight of 0 is 1.448432
weight of 1 is 2.336568
weight of 2 is -5.111111
weight of 3 is 1.000000
not used!
accept
accept
accept
accept
weight of 0 is 0.915620
weight of 1 is 2.336554
weight of 2 is -5.111111
weight of 3 is 0.000000
not used!
accept
accept
deny
deny
accept
accept
accept
accept
weight of 0 is 1.448468
weight of 1 is 2.336575
weight of 2 is -4.755556
weight of 3 is 1.000000
used!
weight of 0 is 1.981317
weight of 1 is 2.336596
weight of 2 is -4.400000
weight of 3 is 2.000000
used!
accept
accept
accept
accept
accept
accept
accept
accept
weight of 0 is 1.448504
weight of 1 is 1.195084
weight of 2 is -4.577778
weight of 3 is 1.000000
not used!
weight of 0 is 0.915691
weight of 1 is 1.195069
weight of 2 is -4.577778
weight of 3 is 0.000000
not used!
accept
accept
deny
deny
accept
accept
weight of 0 is 0.382877
weight of 1 is 1.195013
weight of 2 is -4.755556
weight of 3 is -1.000000
not used!
deny
deny
weight of 0 is 0.915727
weight of 1 is 1.195034
weight of 2 is -4.400000
weight of 3 is 0.000000
used!
weight of 0 is 1.448578
weight of 1 is 1.195055
weight of 2 is -4.044444
weight of 3 is 1.000000
used!
accept
accept
accept
accept
weight of 0 is 1.981429
weight of 1 is 1.195077
weight of 2 is -3.866667
weight of 3 is 2.000000
used!
weight of 0 is 2.514280
weight of 1 is 1.195098
weight of 2 is -3.688889
weight of 3 is 3.000000
used!
weight of 0 is 1.981465
weight of 1 is 1.195084
weight of 2 is -3.688889
weight of 3 is 2.000000
not used!
weight of 0 is 1.448650
weight of 1 is 1.195062
weight of 2 is -3.866667
weight of 3 is 1.000000
not used!
accept
accept
accept
accept
weight of 0 is 0.915835
weight of 1 is 1.195027
weight of 2 is -3.866667
weight of 3 is 0.000000
not used!
accept
accept
weight of 0 is 0.383020
weight of 1 is 0.053683
weight of 2 is -4.044444
weight of 3 is -1.000000
not used!
deny
deny
deny
deny
weight of 0 is -0.149796
weight of 1 is 0.053662
weight of 2 is -4.400000
weight of 3 is -2.000000
not used!
deny
deny
weight of 0 is 0.383056
weight of 1 is 0.053683
weight of 2 is -4.044444
weight of 3 is -1.000000
used!
weight of 0 is 0.915909
weight of 1 is 0.053705
weight of 2 is -3.688889
weight of 3 is 0.000000
used!
deny
deny
weight of 0 is 1.448761
weight of 1 is 0.053719
weight of 2 is -3.688889
weight of 3 is 1.000000
used!
weight of 0 is 1.981614
weight of 1 is 0.053733
weight of 2 is -3.688889
weight of 3 is 2.000000
used!
accept
accept
weight of 0 is 2.514467
weight of 1 is 0.053754
weight of 2 is -3.511111
weight of 3 is 3.000000
used!
weight of 0 is 3.047320
weight of 1 is 0.053775
weight of 2 is -3.333333
weight of 3 is 4.000000
used!
accept
accept
accept
accept
weight of 0 is 2.514503
weight of 1 is 0.053719
weight of 2 is -3.333333
weight of 3 is 3.000000
not used!
accept
accept
weight of 0 is 1.981687
weight of 1 is 0.053698
weight of 2 is -3.511111
weight of 3 is 2.000000
not used!
accept
accept
accept
accept
weight of 0 is 1.448869
weight of 1 is 0.053683
weight of 2 is -3.511111
weight of 3 is 1.000000
not used!
accept
accept
weight of 0 is 0.916052
weight of 1 is 0.053662
weight of 2 is -3.688889
weight of 3 is 0.000000
not used!
accept
accept
accept
accept
accept
accept
deny
deny
accept
accept
accept
accept
weight of 0 is 1.448908
weight of 1 is 0.053683
weight of 2 is -3.333333
weight of 3 is 1.000000
used!
weight of 0 is 1.981764
weight of 1 is 0.053705
weight of 2 is -2.977778
weight of 3 is 2.000000
used!
accept
accept
accept
accept
weight of 0 is 1.448945
weight of 1 is 0.053691
weight of 2 is -2.977778
weight of 3 is 1.000000
not used!
accept
accept
weight of 0 is 0.916126
weight of 1 is 0.053669
weight of 2 is -3.155556
weight of 3 is 0.000000
not used!
accept
accept
accept
accept
weight of 0 is 0.383306
weight of 1 is 0.053613
weight of 2 is -3.511111
weight of 3 is -1.000000
not used!
deny
deny
deny
deny
weight of 0 is -0.149514
weight of 1 is 0.053599
weight of 2 is -3.511111
weight of 3 is -2.000000
not used!
weight of 0 is -0.682334
weight of 1 is 0.053578
weight of 2 is -3.688889
weight of 3 is -3.000000
not used!
deny
deny
weight of 0 is -0.149475
weight of 1 is 0.053634
weight of 2 is -3.511111
weight of 3 is -2.000000
used!
weight of 0 is 0.383383
weight of 1 is 0.053691
weight of 2 is -3.333333
weight of 3 is -1.000000
used!
deny
deny
weight of 0 is 0.916242
weight of 1 is 0.053712
weight of 2 is -2.977778
weight of 3 is 0.000000
used!
weight of 0 is 1.449101
weight of 1 is 0.053733
weight of 2 is -2.622222
weight of 3 is 1.000000
used!
weight of 0 is 0.916280
weight of 1 is -1.087364
weight of 2 is -2.977778
weight of 3 is 0.000000
not used!
deny
deny
weight of 0 is 1.449139
weight of 1 is -1.087350
weight of 2 is -2.977778
weight of 3 is 1.000000
used!
weight of 0 is 1.981998
weight of 1 is -1.087336
weight of 2 is -2.977778
weight of 3 is 2.000000
used!
accept
accept
accept
accept
weight of 0 is 2.514857
weight of 1 is -1.087315
weight of 2 is -2.800000
weight of 3 is 3.000000
used!
weight of 0 is 3.047716
weight of 1 is -1.087294
weight of 2 is -2.622222
weight of 3 is 4.000000
used!
weight of 0 is 2.514895
weight of 1 is -1.087350
weight of 2 is -2.622222
weight of 3 is 3.000000
not used!
accept
accept
accept
accept
weight of 0 is 1.982073
weight of 1 is -1.087371
weight of 2 is -2.800000
weight of 3 is 2.000000
not used!
accept
accept
weight of 0 is 1.449251
weight of 1 is -1.087393
weight of 2 is -3.155556
weight of 3 is 1.000000
not used!
accept
accept
weight of 0 is 0.916429
weight of 1 is -1.087407
weight of 2 is -3.155556
weight of 3 is 0.000000
not used!
weight of 0 is 0.383606
weight of 1 is -1.087442
weight of 2 is -3.155556
weight of 3 is -1.000000
not used!
deny
deny
weight of 0 is -0.149217
weight of 1 is -1.087498
weight of 2 is -3.333333
weight of 3 is -2.000000
not used!
deny
deny
weight of 0 is -0.682041
weight of 1 is -1.087519
weight of 2 is -3.688889
weight of 3 is -3.000000
not used!
deny
deny
weight of 0 is -0.149180
weight of 1 is -1.087463
weight of 2 is -3.688889
weight of 3 is -2.000000
used!
weight of 0 is 0.383682
weight of 1 is -1.087407
weight of 2 is -3.688889
weight of 3 is -1.000000
used!
weight of 0 is -0.149142
weight of 1 is -1.087421
weight of 2 is -3.688889
weight of 3 is -2.000000
not used!
deny
deny
weight of 0 is 0.383720
weight of 1 is -1.087400
weight of 2 is -3.511111
weight of 3 is -1.000000
used!
weight of 0 is 0.916582
weight of 1 is -1.087378
weight of 2 is -3.333333
weight of 3 is 0.000000
used!
deny
deny
deny
deny
weight of 0 is 1.449444
weight of 1 is -1.087357
weight of 2 is -2.977778
weight of 3 is 1.000000
used!
weight of 0 is 1.982306
weight of 1 is -1.087336
weight of 2 is -2.622222
weight of 3 is 2.000000
used!
accept
accept
weight of 0 is 2.515168
weight of 1 is -1.087322
weight of 2 is -2.622222
weight of 3 is 3.000000
used!
weight of 0 is 3.048031
weight of 1 is -1.087308
weight of 2 is -2.622222
weight of 3 is 4.000000
used!
accept
accept
weight of 0 is 3.580893
weight of 1 is 0.051875
weight of 2 is -2.444444
weight of 3 is 5.000000
used!
weight of 0 is 4.113756
weight of 1 is 1.191058
weight of 2 is -2.266667
weight of 3 is 6.000000
used!
weight of 0 is 3.580931
weight of 1 is 0.050203
weight of 2 is -2.444444
weight of 3 is 5.000000
not used!
accept
accept
weight of 0 is 3.048106
weight of 1 is 0.050182
weight of 2 is -2.800000
weight of 3 is 4.000000
not used!
accept
accept
weight of 0 is 2.515280
weight of 1 is 0.050168
weight of 2 is -2.800000
weight of 3 is 3.000000
not used!
accept
accept
weight of 0 is 1.982454
weight of 1 is 0.050147
weight of 2 is -2.977778
weight of 3 is 2.000000
not used!
accept
accept
accept
accept
accept
accept
weight of 0 is 1.449627
weight of 1 is 0.050090
weight of 2 is -2.977778
weight of 3 is 1.000000
not used!
weight of 0 is 0.916800
weight of 1 is 0.050069
weight of 2 is -3.155556
weight of 3 is 0.000000
not used!
weight of 0 is 0.383972
weight of 1 is 0.050048
weight of 2 is -3.511111
weight of 3 is -1.000000
not used!
weight of 0 is -0.148855
weight of 1 is 0.050034
weight of 2 is -3.511111
weight of 3 is -2.000000
not used!
deny
deny
deny
deny
deny
deny
deny
deny
deny
deny
weight of 0 is 0.398005
weight of 1 is 1.189318
weight of 2 is -2.800000
weight of 3 is -1.000000
used!
weight of 0 is 0.944866
weight of 1 is 2.328602
weight of 2 is -2.088889
weight of 3 is 0.000000
used!
weight of 0 is 0.412038
weight of 1 is 1.187916
weight of 2 is -2.266667
weight of 3 is -1.000000
not used!
deny
deny
weight of 0 is 0.958899
weight of 1 is 1.187930
weight of 2 is -1.911111
weight of 3 is 0.000000
used!
weight of 0 is 1.505760
weight of 1 is 1.187944
weight of 2 is -1.555556
weight of 3 is 1.000000
used!
accept
accept
weight of 0 is 2.038625
weight of 1 is 2.327186
weight of 2 is -1.200000
weight of 3 is 2.000000
used!
weight of 0 is 2.571490
weight of 1 is 3.466428
weight of 2 is -0.844444
weight of 3 is 3.000000
used!
weight of 0 is 2.038661
weight of 1 is 3.466407
weight of 2 is -1.200000
weight of 3 is 2.000000
not used!
accept
accept
weight of 0 is 2.585522
weight of 1 is 4.605649
weight of 2 is -1.200000
weight of 3 is 3.000000
used!
weight of 0 is 3.132383
weight of 1 is 5.744891
weight of 2 is -1.200000
weight of 3 is 4.000000
used!
weight of 0 is 2.599554
weight of 1 is 5.744877
weight of 2 is -1.200000
weight of 3 is 3.000000
not used!
weight of 0 is 2.066725
weight of 1 is 5.744856
weight of 2 is -1.377778
weight of 3 is 2.000000
not used!
accept
accept
accept
accept
weight of 0 is 1.533895
weight of 1 is 4.604247
weight of 2 is -1.733333
weight of 3 is 1.000000
not used!
accept
accept
accept
accept
weight of 0 is 1.001064
weight of 1 is 4.604233
weight of 2 is -1.733333
weight of 3 is 0.000000
not used!
weight of 0 is 0.468234
weight of 1 is 4.604212
weight of 2 is -1.911111
weight of 3 is -1.000000
not used!
weight of 0 is -0.064597
weight of 1 is 4.604191
weight of 2 is -2.266667
weight of 3 is -2.000000
not used!
accept
accept
deny
deny
deny
deny
weight of 0 is -0.597429
weight of 1 is 3.463652
weight of 2 is -2.266667
weight of 3 is -3.000000
not used!
deny
deny
weight of 0 is -0.064562
weight of 1 is 3.463674
weight of 2 is -2.088889
weight of 3 is -2.000000
used!
weight of 0 is 0.468306
weight of 1 is 3.463695
weight of 2 is -1.911111
weight of 3 is -1.000000
used!
weight of 0 is -0.064526
weight of 1 is 3.463674
weight of 2 is -2.088889
weight of 3 is -2.000000
not used!
deny
deny
weight of 0 is 0.468342
weight of 1 is 3.463695
weight of 2 is -1.733333
weight of 3 is -1.000000
used!
weight of 0 is 1.001209
weight of 1 is 3.463716
weight of 2 is -1.377778
weight of 3 is 0.000000
used!
weight of 0 is 0.468377
weight of 1 is 3.463695
weight of 2 is -1.733333
weight of 3 is -1.000000
not used!
accept
accept
weight of 0 is -0.064455
weight of 1 is 3.463681
weight of 2 is -1.733333
weight of 3 is -2.000000
not used!
accept
accept
weight of 0 is 0.468412
weight of 1 is 3.463695
weight of 2 is -1.733333
weight of 3 is -1.000000
used!
weight of 0 is 1.001280
weight of 1 is 3.463709
weight of 2 is -1.733333
weight of 3 is 0.000000
used!
weight of 0 is 0.454436
weight of 1 is 2.323192
weight of 2 is -1.733333
weight of 3 is -1.000000
not used!
deny
deny
weight of 0 is 0.987304
weight of 1 is 2.323213
weight of 2 is -1.555556
weight of 3 is 0.000000
used!
weight of 0 is 1.520172
weight of 1 is 2.323234
weight of 2 is -1.377778
weight of 3 is 1.000000
used!
accept
accept
weight of 0 is 0.987339
weight of 1 is 1.182754
weight of 2 is -1.555556
weight of 3 is 0.000000
not used!
accept
accept
weight of 0 is 1.520207
weight of 1 is 1.182769
weight of 2 is -1.555556
weight of 3 is 1.000000
used!
weight of 0 is 2.053076
weight of 1 is 1.182783
weight of 2 is -1.555556
weight of 3 is 2.000000
used!
accept
accept
weight of 0 is 1.520242
weight of 1 is 1.182761
weight of 2 is -1.911111
weight of 3 is 1.000000
not used!
weight of 0 is 0.987408
weight of 1 is 1.182747
weight of 2 is -1.911111
weight of 3 is 0.000000
not used!
accept
accept
weight of 0 is 0.454574
weight of 1 is 1.182726
weight of 2 is -2.088889
weight of 3 is -1.000000
not used!
deny
deny
deny
deny
deny
deny
weight of 0 is 0.987444
weight of 1 is 2.321794
weight of 2 is -1.733333
weight of 3 is 0.000000
used!
weight of 0 is 1.520314
weight of 1 is 3.460862
weight of 2 is -1.377778
weight of 3 is 1.000000
used!
accept
accept
weight of 0 is 2.053184
weight of 1 is 3.460877
weight of 2 is -1.377778
weight of 3 is 2.000000
used!
weight of 0 is 2.586054
weight of 1 is 3.460891
weight of 2 is -1.377778
weight of 3 is 3.000000
used!
weight of 0 is 2.053219
weight of 1 is 2.320489
weight of 2 is -1.733333
weight of 3 is 2.000000
not used!
accept
accept
weight of 0 is 2.586089
weight of 1 is 2.320510
weight of 2 is -1.555556
weight of 3 is 3.000000
used!
weight of 0 is 3.118959
weight of 1 is 2.320531
weight of 2 is -1.377778
weight of 3 is 4.000000
used!
weight of 0 is 2.586124
weight of 1 is 2.320517
weight of 2 is -1.377778
weight of 3 is 3.000000
not used!
accept
accept
accept
accept
weight of 0 is 2.053289
weight of 1 is 2.320496
weight of 2 is -1.555556
weight of 3 is 2.000000
not used!
accept
accept
weight of 0 is 1.520453
weight of 1 is 2.320475
weight of 2 is -1.911111
weight of 3 is 1.000000
not used!
accept
accept
accept
accept
accept
accept
accept
accept
accept
accept
accept
accept
weight of 0 is 0.987615
weight of 1 is 2.320460
weight of 2 is -1.911111
weight of 3 is 0.000000
not used!
accept
accept
accept
accept
accept
accept
accept
accept
accept
accept
accept
accept
weight of 0 is 0.454776
weight of 1 is 2.320404
weight of 2 is -2.088889
weight of 3 is -1.000000
not used!
accept
accept
weight of 0 is -0.078063
weight of 1 is 2.320383
weight of 2 is -2.444444
weight of 3 is -2.000000
not used!
deny
deny
weight of 0 is -0.610902
weight of 1 is 2.320369
weight of 2 is -2.444444
weight of 3 is -3.000000
not used!
deny
deny
deny
deny
weight of 0 is -0.078027
weight of 1 is 2.320390
weight of 2 is -2.088889
weight of 3 is -2.000000
used!
weight of 0 is 0.454848
weight of 1 is 2.320411
weight of 2 is -1.733333
weight of 3 is -1.000000
used!
weight of 0 is -0.077991
weight of 1 is 2.320390
weight of 2 is -1.911111
weight of 3 is -2.000000
not used!
accept
accept
deny
deny
weight of 0 is 0.454884
weight of 1 is 2.320404
weight of 2 is -1.911111
weight of 3 is -1.000000
used!
weight of 0 is 0.987760
weight of 1 is 2.320418
weight of 2 is -1.911111
weight of 3 is 0.000000
used!
accept
accept
weight of 0 is 1.520635
weight of 1 is 2.320439
weight of 2 is -1.733333
weight of 3 is 1.000000
used!
weight of 0 is 2.053511
weight of 1 is 2.320460
weight of 2 is -1.555556
weight of 3 is 2.000000
used!
accept
accept
weight of 0 is 2.586387
weight of 1 is 3.459247
weight of 2 is -1.200000
weight of 3 is 3.000000
used!
weight of 0 is 3.119263
weight of 1 is 4.598033
weight of 2 is -0.844444
weight of 3 is 4.000000
used!
accept
accept
accept
accept
weight of 0 is 2.586423
weight of 1 is 4.597977
weight of 2 is -1.200000
weight of 3 is 3.000000
not used!
accept
accept
weight of 0 is 2.053582
weight of 1 is 4.597963
weight of 2 is -1.200000
weight of 3 is 2.000000
not used!
weight of 0 is 1.520741
weight of 1 is 4.597941
weight of 2 is -1.377778
weight of 3 is 1.000000
not used!
weight of 0 is 0.987900
weight of 1 is 4.597920
weight of 2 is -1.733333
weight of 3 is 0.000000
not used!
accept
accept
accept
accept
accept
accept
accept
accept
accept
accept
weight of 0 is 0.455058
weight of 1 is 3.457814
weight of 2 is -1.733333
weight of 3 is -1.000000
not used!
weight of 0 is -0.077785
weight of 1 is 3.457793
weight of 2 is -1.911111
weight of 3 is -2.000000
not used!
weight of 0 is -0.610628
weight of 1 is 3.457772
weight of 2 is -2.266667
weight of 3 is -3.000000
not used!
weight of 0 is -1.143470
weight of 1 is 3.457758
weight of 2 is -2.266667
weight of 3 is -4.000000
not used!
deny
deny
deny
deny
deny
deny
deny
deny
weight of 0 is -1.676314
weight of 1 is 2.317729
weight of 2 is -2.444444
weight of 3 is -5.000000
not used!
deny
deny
weight of 0 is -1.129446
weight of 1 is 3.456511
weight of 2 is -1.733333
weight of 3 is -4.000000
used!
weight of 0 is -0.582577
weight of 1 is 4.595292
weight of 2 is -1.022222
weight of 3 is -3.000000
used!
weight of 0 is -1.115421
weight of 1 is 4.595271
weight of 2 is -1.377778
weight of 3 is -4.000000
not used!
weight of 0 is -1.648265
weight of 1 is 4.595257
weight of 2 is -1.377778
weight of 3 is -5.000000
not used!
deny
deny
weight of 0 is -1.115386
weight of 1 is 5.733983
weight of 2 is -1.377778
weight of 3 is -4.000000
used!
weight of 0 is -0.582507
weight of 1 is 6.872708
weight of 2 is -1.377778
weight of 3 is -3.000000
used!
accept
accept
weight of 0 is -0.035638
weight of 1 is 8.011452
weight of 2 is -0.666667
weight of 3 is -2.000000
used!
weight of 0 is 0.511231
weight of 1 is 9.150196
weight of 2 is 0.044444
weight of 3 is -1.000000
used!
weight of 0 is -0.021614
weight of 1 is 9.150175
weight of 2 is -0.133333
weight of 3 is -2.000000
not used!
accept
accept
weight of 0 is 0.511265
weight of 1 is 10.288898
weight of 2 is 0.044444
weight of 3 is -1.000000
used!
weight of 0 is 1.044145
weight of 1 is 11.427620
weight of 2 is 0.222222
weight of 3 is 0.000000
used!
weight of 0 is 0.511299
weight of 1 is 11.427585
weight of 2 is 0.044444
weight of 3 is -1.000000
not used!
weight of 0 is -0.021546
weight of 1 is 11.427564
weight of 2 is -0.311111
weight of 3 is -2.000000
not used!
deny
deny
weight of 0 is -0.554392
weight of 1 is 11.427550
weight of 2 is -0.311111
weight of 3 is -3.000000
not used!
deny
deny
weight of 0 is -1.087238
weight of 1 is 11.427529
weight of 2 is -0.488889
weight of 3 is -4.000000
not used!
deny
deny
weight of 0 is -0.554357
weight of 1 is 11.427585
weight of 2 is -0.488889
weight of 3 is -3.000000
used!
weight of 0 is -0.021477
weight of 1 is 11.427642
weight of 2 is -0.488889
weight of 3 is -2.000000
used!
deny
deny
weight of 0 is 0.511404
weight of 1 is 11.427663
weight of 2 is -0.311111
weight of 3 is -1.000000
used!
weight of 0 is 1.044284
weight of 1 is 11.427684
weight of 2 is -0.133333
weight of 3 is 0.000000
used!
accept
accept
accept
accept
weight of 0 is 1.577165
weight of 1 is 11.427705
weight of 2 is 0.222222
weight of 3 is 1.000000
used!
weight of 0 is 2.110046
weight of 1 is 11.427726
weight of 2 is 0.577778
weight of 3 is 2.000000
used!
weight of 0 is 1.577199
weight of 1 is 11.427670
weight of 2 is 0.222222
weight of 3 is 1.000000
not used!
weight of 0 is 1.044352
weight of 1 is 11.427656
weight of 2 is 0.222222
weight of 3 is 0.000000
not used!
accept
accept
accept
accept
accept
accept
accept
accept
weight of 0 is 0.511504
weight of 1 is 11.427599
weight of 2 is 0.044444
weight of 3 is -1.000000
not used!
weight of 0 is -0.021344
weight of 1 is 11.427585
weight of 2 is 0.044444
weight of 3 is -2.000000
not used!
deny
deny
weight of 0 is -0.554193
weight of 1 is 11.427564
weight of 2 is -0.133333
weight of 3 is -3.000000
not used!
weight of 0 is -1.087042
weight of 1 is 11.427543
weight of 2 is -0.488889
weight of 3 is -4.000000
not used!
deny
deny
weight of 0 is -1.619891
weight of 1 is 11.427529
weight of 2 is -0.488889
weight of 3 is -5.000000
not used!
deny
deny
weight of 0 is -1.087008
weight of 1 is 11.427585
weight of 2 is -0.488889
weight of 3 is -4.000000
used!
weight of 0 is -0.554125
weight of 1 is 11.427642
weight of 2 is -0.488889
weight of 3 is -3.000000
used!
deny
deny
weight of 0 is -0.021241
weight of 1 is 11.427663
weight of 2 is -0.311111
weight of 3 is -2.000000
used!
weight of 0 is 0.511642
weight of 1 is 11.427684
weight of 2 is -0.133333
weight of 3 is -1.000000
used!
accept
accept
accept
accept
weight of 0 is 1.044526
weight of 1 is 11.427705
weight of 2 is 0.222222
weight of 3 is 0.000000
used!
weight of 0 is 1.577410
weight of 1 is 11.427726
weight of 2 is 0.577778
weight of 3 is 1.000000
used!
accept
accept
weight of 0 is 1.044560
weight of 1 is 11.427670
weight of 2 is 0.400000
weight of 3 is 0.000000
not used!
accept
accept
weight of 0 is 0.511709
weight of 1 is 11.427656
weight of 2 is 0.400000
weight of 3 is -1.000000
not used!
deny
deny
deny
deny
deny
deny
weight of 0 is 1.044594
weight of 1 is 11.427712
weight of 2 is 0.577778
weight of 3 is 0.000000
used!
weight of 0 is 1.577480
weight of 1 is 11.427768
weight of 2 is 0.755556
weight of 3 is 1.000000
used!
weight of 0 is 1.044629
weight of 1 is 11.427747
weight of 2 is 0.400000
weight of 3 is 0.000000
not used!
accept
accept
weight of 0 is 1.577515
weight of 1 is 11.427768
weight of 2 is 0.755556
weight of 3 is 1.000000
used!
weight of 0 is 2.110400
weight of 1 is 11.427790
weight of 2 is 1.111111
weight of 3 is 2.000000
used!
weight of 0 is 1.577549
weight of 1 is 11.427775
weight of 2 is 1.111111
weight of 3 is 1.000000
not used!
accept
accept
accept
accept
accept
accept
accept
accept
weight of 0 is 1.044697
weight of 1 is 11.427726
weight of 2 is 0.933333
weight of 3 is 0.000000
not used!
accept
accept
accept
accept
accept
accept
weight of 0 is 0.511843
weight of 1 is 10.288184
weight of 2 is 0.933333
weight of 3 is -1.000000
not used!
weight of 0 is -0.021011
weight of 1 is 10.288163
weight of 2 is 0.755556
weight of 3 is -2.000000
not used!
weight of 0 is -0.553865
weight of 1 is 10.288141
weight of 2 is 0.400000
weight of 3 is -3.000000
not used!
weight of 0 is -1.086720
weight of 1 is 10.288127
weight of 2 is 0.400000
weight of 3 is -4.000000
not used!
deny
deny
accept
accept
weight of 0 is -1.619575
weight of 1 is 10.288106
weight of 2 is 0.222222
weight of 3 is -5.000000
not used!
accept
accept
weight of 0 is -2.152431
weight of 1 is 10.288071
weight of 2 is 0.222222
[...]
weight of 2 is -42.777778
weight of 3 is -21.000000
not used!
deny
deny
weight of 0 is -33.869347
weight of 1 is -67.790109
weight of 2 is -43.844444
weight of 3 is -22.000000
not used!
deny
deny
weight of 0 is -34.461119
weight of 1 is -67.790128
weight of 2 is -44.911111
weight of 3 is -23.000000
not used!
deny
deny
weight of 0 is -35.052890
weight of 1 is -67.790147
weight of 2 is -45.977778
weight of 3 is -24.000000
not used!
deny
deny
weight of 0 is -35.644661
weight of 1 is -67.790166
weight of 2 is -47.044444
weight of 3 is -25.000000
not used!
weight of 0 is -36.236432
weight of 1 is -67.790184
weight of 2 is -48.111111
weight of 3 is -26.000000
not used!
deny
deny
deny
deny
deny
deny
weight of 0 is -36.828202
weight of 1 is -67.790478
weight of 2 is -49.177778
weight of 3 is -27.000000
not used!
deny
deny
deny
deny
deny
deny
weight of 0 is -36.817518
weight of 1 is -67.790438
weight of 2 is -47.933333
weight of 3 is -26.000000
used!
weight of 0 is -36.806834
weight of 1 is -67.790398
weight of 2 is -46.688889
weight of 3 is -25.000000
used!
deny
deny
deny
deny
weight of 0 is -37.398604
weight of 1 is -67.790417
weight of 2 is -47.755556
weight of 3 is -26.000000
not used!
weight of 0 is -37.990373
weight of 1 is -67.790436
weight of 2 is -48.822222
weight of 3 is -27.000000
not used!
deny
deny
weight of 0 is -38.582142
weight of 1 is -67.790454
weight of 2 is -49.888889
weight of 3 is -28.000000
not used!
weight of 0 is -39.173911
weight of 1 is -67.790473
weight of 2 is -50.955556
weight of 3 is -29.000000
not used!
deny
deny
weight of 0 is -39.765680
weight of 1 is -67.790492
weight of 2 is -52.022222
weight of 3 is -30.000000
not used!
weight of 0 is -40.357448
weight of 1 is -67.790511
weight of 2 is -53.088889
weight of 3 is -31.000000
not used!
deny
deny
weight of 0 is -40.949217
weight of 1 is -67.790530
weight of 2 is -54.155556
weight of 3 is -32.000000
not used!
deny
deny
deny
deny
weight of 0 is -41.540984
weight of 1 is -67.790548
weight of 2 is -55.222222
weight of 3 is -33.000000
not used!
deny
deny
weight of 0 is -42.132752
weight of 1 is -67.790567
weight of 2 is -56.288889
weight of 3 is -34.000000
not used!
weight of 0 is -42.724520
weight of 1 is -67.790586
weight of 2 is -57.355556
weight of 3 is -35.000000
not used!
deny
deny
deny
deny
weight of 0 is -43.316287
weight of 1 is -67.790605
weight of 2 is -58.422222
weight of 3 is -36.000000
not used!
deny
deny
weight of 0 is -43.908054
weight of 1 is -67.790623
weight of 2 is -59.488889
weight of 3 is -37.000000
not used!
deny
deny
weight of 0 is -43.330091
weight of 1 is -67.790398
weight of 2 is -59.488889
weight of 3 is -36.000000
used!
weight of 0 is -42.752127
weight of 1 is -67.790173
weight of 2 is -59.488889
weight of 3 is -35.000000
used!
weight of 0 is -43.343894
weight of 1 is -67.790191
weight of 2 is -60.555556
weight of 3 is -36.000000
not used!
deny
deny
deny
deny
weight of 0 is -43.935660
weight of 1 is -67.790476
weight of 2 is -61.622222
weight of 3 is -37.000000
not used!
weight of 0 is -44.527426
weight of 1 is -67.790494
weight of 2 is -62.688889
weight of 3 is -38.000000
not used!
weight of 0 is -45.119192
weight of 1 is -67.790513
weight of 2 is -63.755556
weight of 3 is -39.000000
not used!
deny
deny
deny
deny
deny
deny
weight of 0 is -45.710957
weight of 1 is -67.790532
weight of 2 is -64.822222
weight of 3 is -40.000000
not used!
weight of 0 is -46.302722
weight of 1 is -67.790551
weight of 2 is -65.888889
weight of 3 is -41.000000
not used!
deny
deny
weight of 0 is -46.894487
weight of 1 is -67.790569
weight of 2 is -66.955556
weight of 3 is -42.000000
not used!
weight of 0 is -47.486252
weight of 1 is -67.790588
weight of 2 is -68.022222
weight of 3 is -43.000000
not used!
weight of 0 is -48.078016
weight of 1 is -67.790607
weight of 2 is -69.088889
weight of 3 is -44.000000
not used!
deny
deny
weight of 0 is -48.669781
weight of 1 is -67.790626
weight of 2 is -70.155556
weight of 3 is -45.000000
not used!
deny
deny
weight of 0 is -49.261545
weight of 1 is -67.790645
weight of 2 is -71.222222
weight of 3 is -46.000000
not used!
weight of 0 is -49.853309
weight of 1 is -67.790663
weight of 2 is -72.288889
weight of 3 is -47.000000
not used!
weight of 0 is -50.445072
weight of 1 is -67.790682
weight of 2 is -73.355556
weight of 3 is -48.000000
not used!
weight of 0 is -51.036836
weight of 1 is -67.790701
weight of 2 is -74.422222
weight of 3 is -49.000000
not used!
deny
deny
deny
deny
deny
deny
deny
deny
deny
deny
deny
deny
deny
deny
deny
deny
deny
deny
deny
deny
deny
deny
deny
deny
deny
deny
deny
deny
deny
deny
weight of 0 is -51.051961
weight of 1 is -67.790720
weight of 2 is -74.422222
weight of 3 is -50.000000
not used!
deny
deny
deny
deny
weight of 0 is -51.063725
weight of 1 is -67.790724
weight of 2 is -74.600000
weight of 3 is -51.000000
not used!
deny
deny
deny
deny
weight of 0 is -51.078851
weight of 1 is -67.790743
weight of 2 is -74.600000
weight of 3 is -52.000000
not used!
weight of 0 is -51.093977
weight of 1 is -67.790856
weight of 2 is -74.600000
weight of 3 is -53.000000
not used!
deny
deny
deny
deny
deny
deny
deny
deny
deny
deny
deny
deny
deny
deny
deny
deny
deny
deny
deny
deny
deny
deny
deny
deny
deny
deny
deny
deny
deny
deny
deny
deny
deny
deny
deny
deny
weight of 0 is -51.078851
weight of 1 is -63.337566
weight of 2 is -74.600000
weight of 3 is -52.000000
used!
weight of 0 is -51.063725
weight of 1 is -58.884276
weight of 2 is -74.600000
weight of 3 is -51.000000
used!
deny
deny
deny
deny
weight of 0 is -51.048599
weight of 1 is -58.884257
weight of 2 is -74.600000
weight of 3 is -50.000000
used!
weight of 0 is -51.033473
weight of 1 is -58.884238
weight of 2 is -74.600000
weight of 3 is -49.000000
used!
deny
deny
deny
deny
weight of 0 is -51.018347
weight of 1 is -58.236023
weight of 2 is -74.600000
weight of 3 is -48.000000
used!
weight of 0 is -51.003221
weight of 1 is -57.587808
weight of 2 is -74.600000
weight of 3 is -47.000000
used!
deny
deny
deny
deny
deny
deny
deny
deny
weight of 0 is -50.988095
weight of 1 is -57.355297
weight of 2 is -74.600000
weight of 3 is -46.000000
used!
weight of 0 is -50.972969
weight of 1 is -57.122785
weight of 2 is -74.600000
weight of 3 is -45.000000
used!
deny
deny
weight of 0 is -50.957842
weight of 1 is -57.122766
weight of 2 is -74.600000
weight of 3 is -44.000000
used!
weight of 0 is -50.942716
weight of 1 is -57.122748
weight of 2 is -74.600000
weight of 3 is -43.000000
used!
deny
deny
deny
deny
deny
deny
deny
deny
deny
deny
deny
deny
deny
deny
deny
deny
deny
deny
weight of 0 is -50.932694
weight of 1 is -57.122677
weight of 2 is -74.422222
weight of 3 is -42.000000
used!
weight of 0 is -50.922671
weight of 1 is -57.122607
weight of 2 is -74.244444
weight of 3 is -41.000000
used!
deny
deny
deny
deny
deny
deny
deny
deny
deny
deny
deny
deny
deny
deny
deny
deny
deny
deny
deny
deny
weight of 0 is -50.907545
weight of 1 is -56.787754
weight of 2 is -74.244444
weight of 3 is -40.000000
used!
weight of 0 is -50.892419
weight of 1 is -56.452901
weight of 2 is -74.244444
weight of 3 is -39.000000
used!
deny
deny
weight of 0 is -50.877293
weight of 1 is -56.452882
weight of 2 is -74.244444
weight of 3 is -38.000000
used!
weight of 0 is -50.862167
weight of 1 is -56.452864
weight of 2 is -74.244444
weight of 3 is -37.000000
used!
deny
deny
deny
deny
deny
deny
deny
deny
deny
deny
deny
deny
deny
deny
deny
deny
deny
deny
deny
deny
deny
deny
deny
deny
weight of 0 is -50.284204
weight of 1 is -55.414744
weight of 2 is -74.244444
weight of 3 is -36.000000
used!
weight of 0 is -49.706240
weight of 1 is -54.376625
weight of 2 is -74.244444
weight of 3 is -35.000000
used!
deny
deny
deny
deny
deny
deny
deny
deny
deny
deny
deny
deny
deny
deny
deny
deny
deny
deny
deny
deny
deny
deny
deny
deny
deny
deny
deny
deny
deny
deny
deny
deny
deny
deny
deny
deny
deny
deny
weight of 0 is -49.114522
weight of 1 is -54.376329
weight of 2 is -73.711111
weight of 3 is -34.000000
used!
weight of 0 is -48.522804
weight of 1 is -54.376033
weight of 2 is -73.177778
weight of 3 is -33.000000
used!
deny
deny
deny
deny
deny
deny
deny
deny
deny
deny
deny
deny
weight of 0 is -47.944840
weight of 1 is -53.337876
weight of 2 is -73.177778
weight of 3 is -32.000000
used!
weight of 0 is -47.366877
weight of 1 is -52.299719
weight of 2 is -73.177778
weight of 3 is -31.000000
used!
deny
deny
deny
deny
deny
deny
deny
deny
deny
deny
deny
deny
deny
deny
deny
deny
deny
deny
deny
deny
deny
deny
deny
deny
deny
deny
deny
deny
deny
deny
deny
deny
deny
deny
deny
deny
weight of 0 is -46.775162
weight of 1 is -48.493865
weight of 2 is -71.933333
weight of 3 is -30.000000
used!
weight of 0 is -46.183448
weight of 1 is -44.688010
weight of 2 is -70.688889
weight of 3 is -29.000000
used!
deny
deny
deny
deny
deny
deny
deny
deny
deny
deny
deny
deny
deny
deny
deny
deny
deny
deny
deny
deny
deny
deny
deny
deny
deny
deny
deny
deny
deny
deny
deny
deny
deny
deny
deny
deny
deny
deny
deny
deny
deny
deny
weight of 0 is -45.591737
weight of 1 is -44.687670
weight of 2 is -70.155556
weight of 3 is -28.000000
used!
weight of 0 is -45.000027
weight of 1 is -44.687329
weight of 2 is -69.622222
weight of 3 is -27.000000
used!
deny
deny
deny
deny
deny
deny
deny
deny
deny
deny
deny
deny
deny
deny
deny
deny
weight of 0 is -44.984901
weight of 1 is -40.304736
weight of 2 is -69.622222
weight of 3 is -26.000000
used!
weight of 0 is -44.969775
weight of 1 is -35.922142
weight of 2 is -69.622222
weight of 3 is -25.000000
used!
deny
deny
deny
deny
deny
deny
deny
deny
deny
deny
deny
deny
deny
deny
deny
deny
deny
deny
deny
deny
deny
deny
deny
deny
deny
deny
deny
deny
deny
deny
weight of 0 is -44.378068
weight of 1 is -32.115304
weight of 2 is -68.377778
weight of 3 is -24.000000
used!
weight of 0 is -43.786361
weight of 1 is -28.308465
weight of 2 is -67.133333
weight of 3 is -23.000000
used!
deny
deny
deny
deny
deny
deny
deny
deny
deny
deny
deny
deny
deny
deny
deny
deny
deny
deny
deny
deny
deny
deny
deny
deny
deny
deny
deny
deny
deny
deny
weight of 0 is -43.771235
weight of 1 is -28.293135
weight of 2 is -67.133333
weight of 3 is -22.000000
used!
weight of 0 is -43.756109
weight of 1 is -28.277805
weight of 2 is -67.133333
weight of 3 is -21.000000
used!
deny
deny
deny
deny
deny
deny
deny
deny
deny
deny
deny
deny
deny
deny
deny
deny
deny
deny
deny
deny
deny
deny
deny
deny
deny
deny
deny
deny
deny
deny
deny
deny
deny
deny
deny
deny
weight of 0 is -43.243039
weight of 1 is -28.184188
weight of 2 is -67.133333
weight of 3 is -20.000000
used!
weight of 0 is -42.729968
weight of 1 is -28.090571
weight of 2 is -67.133333
weight of 3 is -19.000000
used!
deny
deny
deny
deny
deny
deny
deny
deny
deny
deny
deny
deny
deny
deny
deny
deny
deny
deny
deny
deny
deny
deny
deny
deny
deny
deny
deny
deny
weight of 0 is -42.228708
weight of 1 is -27.340995
weight of 2 is -66.244444
weight of 3 is -18.000000
used!
weight of 0 is -41.727448
weight of 1 is -26.591419
weight of 2 is -65.355556
weight of 3 is -17.000000
used!
deny
deny
deny
deny
deny
deny
deny
deny
deny
deny
deny
deny
deny
deny
deny
deny
deny
deny
deny
deny
deny
deny
deny
deny
deny
deny
deny
deny
deny
deny
deny
deny
deny
deny
deny
deny
deny
deny
weight of 0 is -41.214378
weight of 1 is -26.540299
weight of 2 is -65.355556
weight of 3 is -16.000000
used!
weight of 0 is -40.701307
weight of 1 is -26.489179
weight of 2 is -65.355556
weight of 3 is -15.000000
used!
deny
deny
deny
deny
deny
deny
deny
deny
deny
deny
weight of 0 is -40.188236
weight of 1 is -25.680891
weight of 2 is -65.355556
weight of 3 is -14.000000
used!
weight of 0 is -39.675166
weight of 1 is -24.872604
weight of 2 is -65.355556
weight of 3 is -13.000000
used!
deny
deny
deny
deny
deny
deny
deny
deny
deny
deny
deny
deny
deny
deny
deny
deny
deny
deny
deny
deny
deny
deny
deny
deny
deny
deny
deny
deny
deny
deny
deny
deny
deny
deny
deny
deny
deny
deny
deny
deny
deny
deny
deny
deny
deny
deny
deny
deny
deny
deny
deny
deny
deny
deny
deny
deny
deny
deny
deny
deny
deny
deny
deny
deny
deny
deny
deny
deny
deny
deny
deny
deny
deny
deny
deny
deny
deny
deny
deny
deny
deny
deny
deny
deny
deny
deny
deny
deny
deny
deny
deny
deny
deny
deny
deny
deny
deny
deny
deny
deny
deny
deny
deny
deny
deny
deny
deny
deny
deny
deny
deny
deny
deny
deny
weight of 0 is -39.150711
weight of 1 is -24.871566
weight of 2 is -64.288889
weight of 3 is -12.000000
used!
weight of 0 is -38.626255
weight of 1 is -24.870528
weight of 2 is -63.222222
weight of 3 is -11.000000
used!
deny
deny
deny
deny
deny
deny
deny
deny
deny
deny
deny
deny
deny
deny
deny
deny
deny
deny
deny
deny
deny
deny
deny
deny
deny
deny
deny
deny
deny
deny
weight of 0 is -38.048292
weight of 1 is -23.827930
weight of 2 is -63.222222
weight of 3 is -10.000000
used!
weight of 0 is -37.470329
weight of 1 is -22.785332
weight of 2 is -63.222222
weight of 3 is -9.000000
used!
deny
deny
weight of 0 is -36.892365
weight of 1 is -22.785313
weight of 2 is -63.222222
weight of 3 is -8.000000
used!
weight of 0 is -36.314402
weight of 1 is -22.785294
weight of 2 is -63.222222
weight of 3 is -7.000000
used!
deny
deny
deny
deny
deny
deny
weight of 0 is -35.736438
weight of 1 is -22.771993
weight of 2 is -63.222222
weight of 3 is -6.000000
used!
weight of 0 is -35.158475
weight of 1 is -22.758692
weight of 2 is -63.222222
weight of 3 is -5.000000
used!
deny
deny
weight of 0 is -34.580512
weight of 1 is -22.758673
weight of 2 is -63.222222
weight of 3 is -4.000000
used!
weight of 0 is -34.002548
weight of 1 is -22.758654
weight of 2 is -63.222222
weight of 3 is -3.000000
used!
deny
deny
deny
deny
deny
deny
deny
deny
deny
deny
deny
deny
deny
deny
deny
deny
deny
deny
deny
deny
deny
deny
deny
deny
deny
deny
deny
deny
deny
deny
deny
deny
deny
deny
deny
deny
deny
deny
deny
deny
deny
deny
deny
deny
deny
deny
deny
deny
deny
deny
deny
deny
deny
deny
deny
deny
deny
deny
deny
deny
deny
deny
deny
deny
deny
deny
deny
deny
deny
deny
deny
deny
deny
deny
deny
deny
deny
deny
deny
deny
deny
deny
deny
deny
deny
deny
deny
deny
deny
deny
weight of 0 is -33.502004
weight of 1 is -22.491837
weight of 2 is -63.222222
weight of 3 is -2.000000
used!
weight of 0 is -33.001460
weight of 1 is -22.225020
weight of 2 is -63.222222
weight of 3 is -1.000000
used!
deny
deny
deny
deny
weight of 0 is -32.500915
weight of 1 is -22.225001
weight of 2 is -63.222222
weight of 3 is 0.000000
used!
weight of 0 is -32.000371
weight of 1 is -22.224983
weight of 2 is -63.222222
weight of 3 is 1.000000
used!
deny
deny
deny
deny
deny
deny
weight of 0 is -31.499827
weight of 1 is -22.224964
weight of 2 is -63.222222
weight of 3 is 2.000000
used!
weight of 0 is -30.999283
weight of 1 is -22.224945
weight of 2 is -63.222222
weight of 3 is 3.000000
used!
deny
deny
weight of 0 is -30.498739
weight of 1 is -22.200857
weight of 2 is -63.222222
weight of 3 is 4.000000
used!
weight of 0 is -29.998194
weight of 1 is -22.176770
weight of 2 is -63.222222
weight of 3 is 5.000000
used!
deny
deny
weight of 0 is -29.497650
weight of 1 is -22.158941
weight of 2 is -63.222222
weight of 3 is 6.000000
used!
weight of 0 is -28.997106
weight of 1 is -22.141111
weight of 2 is -63.222222
weight of 3 is 7.000000
used!
deny
deny
deny
deny
deny
deny
deny
deny
deny
deny
deny
deny
deny
deny
weight of 0 is -28.496562
weight of 1 is -22.141093
weight of 2 is -63.222222
weight of 3 is 8.000000
used!
weight of 0 is -27.996017
weight of 1 is -22.141074
weight of 2 is -63.222222
weight of 3 is 9.000000
used!
deny
deny
deny
deny
deny
deny
weight of 0 is -27.495473
weight of 1 is -22.140755
weight of 2 is -63.222222
weight of 3 is 10.000000
used!
weight of 0 is -26.994929
weight of 1 is -22.140435
weight of 2 is -63.222222
weight of 3 is 11.000000
used!
deny
deny
weight of 0 is -26.494385
weight of 1 is -22.140116
weight of 2 is -63.222222
weight of 3 is 12.000000
used!
weight of 0 is -25.993840
weight of 1 is -22.139796
weight of 2 is -63.222222
weight of 3 is 13.000000
used!
accept
accept
accept
accept
weight of 0 is -25.493296
weight of 1 is -22.109475
weight of 2 is -63.222222
weight of 3 is 14.000000
used!
weight of 0 is -24.992752
weight of 1 is -22.079153
weight of 2 is -63.222222
weight of 3 is 15.000000
used!
deny
deny
deny
deny
accept
accept
accept
accept
weight of 0 is -24.468280
weight of 1 is -22.079125
weight of 2 is -62.866667
weight of 3 is 16.000000
used!
weight of 0 is -23.943808
weight of 1 is -22.079097
weight of 2 is -62.511111
weight of 3 is 17.000000
used!
deny
deny
deny
deny
weight of 0 is -23.443263
weight of 1 is -22.079078
weight of 2 is -62.511111
weight of 3 is 18.000000
used!
weight of 0 is -22.942719
weight of 1 is -22.079059
weight of 2 is -62.511111
weight of 3 is 19.000000
used!
deny
deny
accept
accept
weight of 0 is -22.442175
weight of 1 is -22.054167
weight of 2 is -62.511111
weight of 3 is 20.000000
used!
weight of 0 is -21.941631
weight of 1 is -22.029276
weight of 2 is -62.511111
weight of 3 is 21.000000
used!
deny
deny
weight of 0 is -21.441531
weight of 1 is -21.993065
weight of 2 is -61.622222
weight of 3 is 22.000000
used!
weight of 0 is -20.941432
weight of 1 is -21.956855
weight of 2 is -60.733333
weight of 3 is 23.000000
used!
accept
accept
deny
deny
accept
accept
accept
accept
weight of 0 is -20.440585
weight of 1 is -21.931903
weight of 2 is -60.555556
weight of 3 is 24.000000
used!
weight of 0 is -19.939738
weight of 1 is -21.906952
weight of 2 is -60.377778
weight of 3 is 25.000000
used!
deny
deny
deny
deny
accept
accept
accept
accept
deny
deny
accept
accept
deny
deny
accept
accept
deny
deny
accept
accept
deny
deny
accept
accept
deny
deny
deny
deny
deny
deny
deny
deny
deny
deny
deny
deny
deny
deny
deny
deny
deny
deny
accept
accept
accept
accept
accept
accept
accept
accept
accept
accept
accept
accept
deny
deny
deny
deny
deny
deny
deny
deny
deny
deny
accept
accept
deny
deny
deny
deny
weight of 0 is -19.361774
weight of 1 is -20.235445
weight of 2 is -60.377778
weight of 3 is 26.000000
used!
weight of 0 is -18.783811
weight of 1 is -18.563938
weight of 2 is -60.377778
weight of 3 is 27.000000
used!
accept
accept
accept
accept
deny
deny
deny
deny
accept
accept
deny
deny
deny
deny
deny
deny
accept
accept
deny
deny
deny
deny
accept
accept
accept
accept
deny
deny
accept
accept
deny
deny
deny
deny
deny
deny
accept
accept
accept
accept
deny
deny
deny
deny
accept
accept
accept
accept
deny
deny
deny
deny
deny
deny
accept
accept
deny
deny
accept
accept
accept
accept
deny
deny
accept
accept
accept
accept
deny
deny
deny
deny
deny
deny
accept
accept
accept
accept
accept
accept
weight of 0 is -19.284355
weight of 1 is -18.576995
weight of 2 is -60.377778
weight of 3 is 26.000000
not used!
deny
deny
accept
accept
deny
deny
deny
deny
weight of 0 is -19.808827
weight of 1 is -18.577019
weight of 2 is -60.377778
weight of 3 is 25.000000
not used!
deny
deny
accept
accept
weight of 0 is -20.333299
weight of 1 is -18.577075
weight of 2 is -60.377778
weight of 3 is 24.000000
not used!
deny
deny
deny
deny
accept
accept
accept
accept
deny
deny
deny
deny
weight of 0 is -20.348425
weight of 1 is -18.794712
weight of 2 is -60.377778
weight of 3 is 23.000000
not used!
weight of 0 is -20.849273
weight of 1 is -18.794716
weight of 2 is -60.377778
weight of 3 is 22.000000
not used!
weight of 0 is -21.350119
weight of 1 is -18.794752
weight of 2 is -60.555556
weight of 3 is 21.000000
not used!
deny
deny
weight of 0 is -20.759559
weight of 1 is -18.794705
weight of 2 is -59.844444
weight of 3 is 22.000000
used!
weight of 0 is -20.168999
weight of 1 is -18.794658
weight of 2 is -59.133333
weight of 3 is 23.000000
used!
weight of 0 is -20.682069
weight of 1 is -19.494038
weight of 2 is -59.133333
weight of 3 is 22.000000
not used!
weight of 0 is -21.195140
weight of 1 is -19.617414
weight of 2 is -59.133333
weight of 3 is 21.000000
not used!
weight of 0 is -21.718420
weight of 1 is -19.619534
weight of 2 is -59.311111
weight of 3 is 20.000000
not used!
Exiting @ tick 6294225000 because exiting with last active thread context
Simulated exit code not 0! Exit code is 1
