
---------- Begin Simulation Statistics ----------
final_tick                               391786637000                       # Number of ticks from beginning of simulation (restored from checkpoints and never reset)
host_inst_rate                                  88531                       # Simulator instruction rate (inst/s)
host_mem_usage                                1011460                       # Number of bytes of host memory used
host_op_rate                                   172304                       # Simulator op (including micro ops) rate (op/s)
host_seconds                                  1423.24                       # Real time elapsed on the host
host_tick_rate                              275278881                       # Simulator tick rate (ticks/s)
sim_freq                                 1000000000000                       # Frequency of simulated ticks
sim_insts                                   126000004                       # Number of instructions simulated
sim_ops                                     245229560                       # Number of ops (including micro ops) simulated
sim_seconds                                  0.391787                       # Number of seconds simulated
sim_ticks                                391786637000                       # Number of ticks simulated
system.clk_domain.clock                          1000                       # Clock period in ticks
system.cpu.apic_clk_domain.clock                16000                       # Clock period in ticks
system.cpu.branchPred.BTBCorrect                    0                       # Number of correct BTB predictions (this stat may not work properly.
system.cpu.branchPred.BTBHitPct                   nan                       # BTB Hit Percentage
system.cpu.branchPred.BTBHits                       0                       # Number of BTB hits
system.cpu.branchPred.BTBLookups                    0                       # Number of BTB lookups
system.cpu.branchPred.RASInCorrect                  0                       # Number of incorrect RAS predictions.
system.cpu.branchPred.condIncorrect                 1                       # Number of conditional branches incorrect
system.cpu.branchPred.condPredicted                 1                       # Number of conditional branches predicted
system.cpu.branchPred.indirectHits                  0                       # Number of indirect target hits.
system.cpu.branchPred.indirectLookups               0                       # Number of indirect predictor lookups.
system.cpu.branchPred.indirectMisses                0                       # Number of indirect misses.
system.cpu.branchPred.lookups                       1                       # Number of BP lookups
system.cpu.branchPred.usedRAS                       0                       # Number of times the RAS was used to get a target.
system.cpu.branchPredindirectMispredicted            0                       # Number of mispredicted indirect branches.
system.cpu.cc_regfile_reads                         5                       # number of cc regfile reads
system.cpu.commit.amos                              0                       # Number of atomic instructions committed
system.cpu.commit.branchMispredicts                 1                       # The number of times a branch was mispredicted
system.cpu.commit.branches                          1                       # Number of branches committed
system.cpu.commit.bw_lim_events                     0                       # number cycles where commit BW limit reached
system.cpu.commit.commitSquashedInsts              24                       # The number of squashed insts skipped by commit
system.cpu.commit.committedInsts                    3                       # Number of instructions committed
system.cpu.commit.committedOps                      8                       # Number of ops (including micro ops) committed
system.cpu.commit.committed_per_cycle::samples           44                       # Number of insts commited each cycle
system.cpu.commit.committed_per_cycle::mean     0.181818                       # Number of insts commited each cycle
system.cpu.commit.committed_per_cycle::stdev     0.946787                       # Number of insts commited each cycle
system.cpu.commit.committed_per_cycle::underflows            0      0.00%      0.00% # Number of insts commited each cycle
system.cpu.commit.committed_per_cycle::0           42     95.45%     95.45% # Number of insts commited each cycle
system.cpu.commit.committed_per_cycle::1            0      0.00%     95.45% # Number of insts commited each cycle
system.cpu.commit.committed_per_cycle::2            1      2.27%     97.73% # Number of insts commited each cycle
system.cpu.commit.committed_per_cycle::3            0      0.00%     97.73% # Number of insts commited each cycle
system.cpu.commit.committed_per_cycle::4            0      0.00%     97.73% # Number of insts commited each cycle
system.cpu.commit.committed_per_cycle::5            0      0.00%     97.73% # Number of insts commited each cycle
system.cpu.commit.committed_per_cycle::6            1      2.27%    100.00% # Number of insts commited each cycle
system.cpu.commit.committed_per_cycle::7            0      0.00%    100.00% # Number of insts commited each cycle
system.cpu.commit.committed_per_cycle::8            0      0.00%    100.00% # Number of insts commited each cycle
system.cpu.commit.committed_per_cycle::overflows            0      0.00%    100.00% # Number of insts commited each cycle
system.cpu.commit.committed_per_cycle::min_value            0                       # Number of insts commited each cycle
system.cpu.commit.committed_per_cycle::max_value            6                       # Number of insts commited each cycle
system.cpu.commit.committed_per_cycle::total           44                       # Number of insts commited each cycle
system.cpu.commit.fp_insts                          0                       # Number of committed floating point instructions.
system.cpu.commit.function_calls                    1                       # Number of function calls committed.
system.cpu.commit.int_insts                         8                       # Number of committed integer instructions.
system.cpu.commit.loads                             0                       # Number of loads committed
system.cpu.commit.membars                           0                       # Number of memory barriers committed
system.cpu.commit.op_class_0::No_OpClass            0      0.00%      0.00% # Class of committed instruction
system.cpu.commit.op_class_0::IntAlu                6     75.00%     75.00% # Class of committed instruction
system.cpu.commit.op_class_0::IntMult               0      0.00%     75.00% # Class of committed instruction
system.cpu.commit.op_class_0::IntDiv                0      0.00%     75.00% # Class of committed instruction
system.cpu.commit.op_class_0::FloatAdd              0      0.00%     75.00% # Class of committed instruction
system.cpu.commit.op_class_0::FloatCmp              0      0.00%     75.00% # Class of committed instruction
system.cpu.commit.op_class_0::FloatCvt              0      0.00%     75.00% # Class of committed instruction
system.cpu.commit.op_class_0::FloatMult             0      0.00%     75.00% # Class of committed instruction
system.cpu.commit.op_class_0::FloatMultAcc            0      0.00%     75.00% # Class of committed instruction
system.cpu.commit.op_class_0::FloatDiv              0      0.00%     75.00% # Class of committed instruction
system.cpu.commit.op_class_0::FloatMisc             0      0.00%     75.00% # Class of committed instruction
system.cpu.commit.op_class_0::FloatSqrt             0      0.00%     75.00% # Class of committed instruction
system.cpu.commit.op_class_0::SimdAdd               0      0.00%     75.00% # Class of committed instruction
system.cpu.commit.op_class_0::SimdAddAcc            0      0.00%     75.00% # Class of committed instruction
system.cpu.commit.op_class_0::SimdAlu               0      0.00%     75.00% # Class of committed instruction
system.cpu.commit.op_class_0::SimdCmp               0      0.00%     75.00% # Class of committed instruction
system.cpu.commit.op_class_0::SimdCvt               0      0.00%     75.00% # Class of committed instruction
system.cpu.commit.op_class_0::SimdMisc              0      0.00%     75.00% # Class of committed instruction
system.cpu.commit.op_class_0::SimdMult              0      0.00%     75.00% # Class of committed instruction
system.cpu.commit.op_class_0::SimdMultAcc            0      0.00%     75.00% # Class of committed instruction
system.cpu.commit.op_class_0::SimdShift             0      0.00%     75.00% # Class of committed instruction
system.cpu.commit.op_class_0::SimdShiftAcc            0      0.00%     75.00% # Class of committed instruction
system.cpu.commit.op_class_0::SimdDiv               0      0.00%     75.00% # Class of committed instruction
system.cpu.commit.op_class_0::SimdSqrt              0      0.00%     75.00% # Class of committed instruction
system.cpu.commit.op_class_0::SimdFloatAdd            0      0.00%     75.00% # Class of committed instruction
system.cpu.commit.op_class_0::SimdFloatAlu            0      0.00%     75.00% # Class of committed instruction
system.cpu.commit.op_class_0::SimdFloatCmp            0      0.00%     75.00% # Class of committed instruction
system.cpu.commit.op_class_0::SimdFloatCvt            0      0.00%     75.00% # Class of committed instruction
system.cpu.commit.op_class_0::SimdFloatDiv            0      0.00%     75.00% # Class of committed instruction
system.cpu.commit.op_class_0::SimdFloatMisc            0      0.00%     75.00% # Class of committed instruction
system.cpu.commit.op_class_0::SimdFloatMult            0      0.00%     75.00% # Class of committed instruction
system.cpu.commit.op_class_0::SimdFloatMultAcc            0      0.00%     75.00% # Class of committed instruction
system.cpu.commit.op_class_0::SimdFloatSqrt            0      0.00%     75.00% # Class of committed instruction
system.cpu.commit.op_class_0::SimdReduceAdd            0      0.00%     75.00% # Class of committed instruction
system.cpu.commit.op_class_0::SimdReduceAlu            0      0.00%     75.00% # Class of committed instruction
system.cpu.commit.op_class_0::SimdReduceCmp            0      0.00%     75.00% # Class of committed instruction
system.cpu.commit.op_class_0::SimdFloatReduceAdd            0      0.00%     75.00% # Class of committed instruction
system.cpu.commit.op_class_0::SimdFloatReduceCmp            0      0.00%     75.00% # Class of committed instruction
system.cpu.commit.op_class_0::SimdAes               0      0.00%     75.00% # Class of committed instruction
system.cpu.commit.op_class_0::SimdAesMix            0      0.00%     75.00% # Class of committed instruction
system.cpu.commit.op_class_0::SimdSha1Hash            0      0.00%     75.00% # Class of committed instruction
system.cpu.commit.op_class_0::SimdSha1Hash2            0      0.00%     75.00% # Class of committed instruction
system.cpu.commit.op_class_0::SimdSha256Hash            0      0.00%     75.00% # Class of committed instruction
system.cpu.commit.op_class_0::SimdSha256Hash2            0      0.00%     75.00% # Class of committed instruction
system.cpu.commit.op_class_0::SimdShaSigma2            0      0.00%     75.00% # Class of committed instruction
system.cpu.commit.op_class_0::SimdShaSigma3            0      0.00%     75.00% # Class of committed instruction
system.cpu.commit.op_class_0::SimdPredAlu            0      0.00%     75.00% # Class of committed instruction
system.cpu.commit.op_class_0::MemRead               0      0.00%     75.00% # Class of committed instruction
system.cpu.commit.op_class_0::MemWrite              2     25.00%    100.00% # Class of committed instruction
system.cpu.commit.op_class_0::FloatMemRead            0      0.00%    100.00% # Class of committed instruction
system.cpu.commit.op_class_0::FloatMemWrite            0      0.00%    100.00% # Class of committed instruction
system.cpu.commit.op_class_0::IprAccess             0      0.00%    100.00% # Class of committed instruction
system.cpu.commit.op_class_0::InstPrefetch            0      0.00%    100.00% # Class of committed instruction
system.cpu.commit.op_class_0::total                 8                       # Class of committed instruction
system.cpu.commit.refs                              2                       # Number of memory references committed
system.cpu.commit.swp_count                         0                       # Number of s/w prefetches committed
system.cpu.commit.vec_insts                         0                       # Number of committed Vector instructions.
system.cpu.committedInsts                           3                       # Number of Instructions Simulated
system.cpu.committedOps                             8                       # Number of Ops (including micro ops) Simulated
system.cpu.cpi                              82.000000                       # CPI: Cycles Per Instruction
system.cpu.cpi_total                        82.000000                       # CPI: Total CPI of All Threads
system.cpu.dcache.ReadReq_accesses::.cpu.data            1                       # number of ReadReq accesses(hits+misses)
system.cpu.dcache.ReadReq_accesses::.switch_cpus.data      6396460                       # number of ReadReq accesses(hits+misses)
system.cpu.dcache.ReadReq_accesses::.switch_cpus_1.data     36363773                       # number of ReadReq accesses(hits+misses)
system.cpu.dcache.ReadReq_accesses::total     42760234                       # number of ReadReq accesses(hits+misses)
system.cpu.dcache.ReadReq_avg_miss_latency::.cpu.data       111000                       # average ReadReq miss latency
system.cpu.dcache.ReadReq_avg_miss_latency::.switch_cpus.data 69949.698884                       # average ReadReq miss latency
system.cpu.dcache.ReadReq_avg_miss_latency::.switch_cpus_1.data 62496.237344                       # average ReadReq miss latency
system.cpu.dcache.ReadReq_avg_miss_latency::total 63208.014720                       # average ReadReq miss latency
system.cpu.dcache.ReadReq_avg_mshr_miss_latency::.cpu.data       109000                       # average ReadReq mshr miss latency
system.cpu.dcache.ReadReq_avg_mshr_miss_latency::.switch_cpus.data 67949.698884                       # average ReadReq mshr miss latency
system.cpu.dcache.ReadReq_avg_mshr_miss_latency::.switch_cpus_1.data 58171.205962                       # average ReadReq mshr miss latency
system.cpu.dcache.ReadReq_avg_mshr_miss_latency::total 59639.156638                       # average ReadReq mshr miss latency
system.cpu.dcache.ReadReq_hits::.switch_cpus.data      6318251                       # number of ReadReq hits
system.cpu.dcache.ReadReq_hits::.switch_cpus_1.data     35622940                       # number of ReadReq hits
system.cpu.dcache.ReadReq_hits::total        41941191                       # number of ReadReq hits
system.cpu.dcache.ReadReq_miss_latency::.cpu.data       111000                       # number of ReadReq miss cycles
system.cpu.dcache.ReadReq_miss_latency::.switch_cpus.data   5470696000                       # number of ReadReq miss cycles
system.cpu.dcache.ReadReq_miss_latency::.switch_cpus_1.data  46299275000                       # number of ReadReq miss cycles
system.cpu.dcache.ReadReq_miss_latency::total  51770082000                       # number of ReadReq miss cycles
system.cpu.dcache.ReadReq_miss_rate::.cpu.data            1                       # miss rate for ReadReq accesses
system.cpu.dcache.ReadReq_miss_rate::.switch_cpus.data     0.012227                       # miss rate for ReadReq accesses
system.cpu.dcache.ReadReq_miss_rate::.switch_cpus_1.data     0.020373                       # miss rate for ReadReq accesses
system.cpu.dcache.ReadReq_miss_rate::total     0.019154                       # miss rate for ReadReq accesses
system.cpu.dcache.ReadReq_misses::.cpu.data            1                       # number of ReadReq misses
system.cpu.dcache.ReadReq_misses::.switch_cpus.data        78209                       # number of ReadReq misses
system.cpu.dcache.ReadReq_misses::.switch_cpus_1.data       740833                       # number of ReadReq misses
system.cpu.dcache.ReadReq_misses::total        819043                       # number of ReadReq misses
system.cpu.dcache.ReadReq_mshr_hits::.switch_cpus_1.data       298033                       # number of ReadReq MSHR hits
system.cpu.dcache.ReadReq_mshr_hits::total       298033                       # number of ReadReq MSHR hits
system.cpu.dcache.ReadReq_mshr_miss_latency::.cpu.data       109000                       # number of ReadReq MSHR miss cycles
system.cpu.dcache.ReadReq_mshr_miss_latency::.switch_cpus.data   5314278000                       # number of ReadReq MSHR miss cycles
system.cpu.dcache.ReadReq_mshr_miss_latency::.switch_cpus_1.data  25758210000                       # number of ReadReq MSHR miss cycles
system.cpu.dcache.ReadReq_mshr_miss_latency::total  31072597000                       # number of ReadReq MSHR miss cycles
system.cpu.dcache.ReadReq_mshr_miss_rate::.cpu.data            1                       # mshr miss rate for ReadReq accesses
system.cpu.dcache.ReadReq_mshr_miss_rate::.switch_cpus.data     0.012227                       # mshr miss rate for ReadReq accesses
system.cpu.dcache.ReadReq_mshr_miss_rate::.switch_cpus_1.data     0.012177                       # mshr miss rate for ReadReq accesses
system.cpu.dcache.ReadReq_mshr_miss_rate::total     0.012184                       # mshr miss rate for ReadReq accesses
system.cpu.dcache.ReadReq_mshr_misses::.cpu.data            1                       # number of ReadReq MSHR misses
system.cpu.dcache.ReadReq_mshr_misses::.switch_cpus.data        78209                       # number of ReadReq MSHR misses
system.cpu.dcache.ReadReq_mshr_misses::.switch_cpus_1.data       442800                       # number of ReadReq MSHR misses
system.cpu.dcache.ReadReq_mshr_misses::total       521010                       # number of ReadReq MSHR misses
system.cpu.dcache.SoftPFReq_accesses::.switch_cpus_1.data            2                       # number of SoftPFReq accesses(hits+misses)
system.cpu.dcache.SoftPFReq_accesses::total            2                       # number of SoftPFReq accesses(hits+misses)
system.cpu.dcache.SoftPFReq_avg_mshr_miss_latency::.switch_cpus_1.data       133500                       # average SoftPFReq mshr miss latency
system.cpu.dcache.SoftPFReq_avg_mshr_miss_latency::total       133500                       # average SoftPFReq mshr miss latency
system.cpu.dcache.SoftPFReq_miss_rate::.switch_cpus_1.data            1                       # miss rate for SoftPFReq accesses
system.cpu.dcache.SoftPFReq_miss_rate::total            1                       # miss rate for SoftPFReq accesses
system.cpu.dcache.SoftPFReq_misses::.switch_cpus_1.data            2                       # number of SoftPFReq misses
system.cpu.dcache.SoftPFReq_misses::total            2                       # number of SoftPFReq misses
system.cpu.dcache.SoftPFReq_mshr_miss_latency::.switch_cpus_1.data       267000                       # number of SoftPFReq MSHR miss cycles
system.cpu.dcache.SoftPFReq_mshr_miss_latency::total       267000                       # number of SoftPFReq MSHR miss cycles
system.cpu.dcache.SoftPFReq_mshr_miss_rate::.switch_cpus_1.data            1                       # mshr miss rate for SoftPFReq accesses
system.cpu.dcache.SoftPFReq_mshr_miss_rate::total            1                       # mshr miss rate for SoftPFReq accesses
system.cpu.dcache.SoftPFReq_mshr_misses::.switch_cpus_1.data            2                       # number of SoftPFReq MSHR misses
system.cpu.dcache.SoftPFReq_mshr_misses::total            2                       # number of SoftPFReq MSHR misses
system.cpu.dcache.WriteReq_accesses::.cpu.data            2                       # number of WriteReq accesses(hits+misses)
system.cpu.dcache.WriteReq_accesses::.switch_cpus.data      3950484                       # number of WriteReq accesses(hits+misses)
system.cpu.dcache.WriteReq_accesses::.switch_cpus_1.data     15266170                       # number of WriteReq accesses(hits+misses)
system.cpu.dcache.WriteReq_accesses::total     19216656                       # number of WriteReq accesses(hits+misses)
system.cpu.dcache.WriteReq_avg_miss_latency::.cpu.data       116000                       # average WriteReq miss latency
system.cpu.dcache.WriteReq_avg_miss_latency::.switch_cpus.data 103075.618543                       # average WriteReq miss latency
system.cpu.dcache.WriteReq_avg_miss_latency::.switch_cpus_1.data 84913.496738                       # average WriteReq miss latency
system.cpu.dcache.WriteReq_avg_miss_latency::total 89353.152086                       # average WriteReq miss latency
system.cpu.dcache.WriteReq_avg_mshr_miss_latency::.cpu.data       114000                       # average WriteReq mshr miss latency
system.cpu.dcache.WriteReq_avg_mshr_miss_latency::.switch_cpus.data 101075.618543                       # average WriteReq mshr miss latency
system.cpu.dcache.WriteReq_avg_mshr_miss_latency::.switch_cpus_1.data 84010.965772                       # average WriteReq mshr miss latency
system.cpu.dcache.WriteReq_avg_mshr_miss_latency::total 88270.939833                       # average WriteReq mshr miss latency
system.cpu.dcache.WriteReq_hits::.cpu.data            1                       # number of WriteReq hits
system.cpu.dcache.WriteReq_hits::.switch_cpus.data      3900245                       # number of WriteReq hits
system.cpu.dcache.WriteReq_hits::.switch_cpus_1.data     15110881                       # number of WriteReq hits
system.cpu.dcache.WriteReq_hits::total       19011127                       # number of WriteReq hits
system.cpu.dcache.WriteReq_miss_latency::.cpu.data       116000                       # number of WriteReq miss cycles
system.cpu.dcache.WriteReq_miss_latency::.switch_cpus.data   5178416000                       # number of WriteReq miss cycles
system.cpu.dcache.WriteReq_miss_latency::.switch_cpus_1.data  13186131995                       # number of WriteReq miss cycles
system.cpu.dcache.WriteReq_miss_latency::total  18364663995                       # number of WriteReq miss cycles
system.cpu.dcache.WriteReq_miss_rate::.cpu.data     0.500000                       # miss rate for WriteReq accesses
system.cpu.dcache.WriteReq_miss_rate::.switch_cpus.data     0.012717                       # miss rate for WriteReq accesses
system.cpu.dcache.WriteReq_miss_rate::.switch_cpus_1.data     0.010172                       # miss rate for WriteReq accesses
system.cpu.dcache.WriteReq_miss_rate::total     0.010695                       # miss rate for WriteReq accesses
system.cpu.dcache.WriteReq_misses::.cpu.data            1                       # number of WriteReq misses
system.cpu.dcache.WriteReq_misses::.switch_cpus.data        50239                       # number of WriteReq misses
system.cpu.dcache.WriteReq_misses::.switch_cpus_1.data       155289                       # number of WriteReq misses
system.cpu.dcache.WriteReq_misses::total       205529                       # number of WriteReq misses
system.cpu.dcache.WriteReq_mshr_hits::.switch_cpus_1.data         4274                       # number of WriteReq MSHR hits
system.cpu.dcache.WriteReq_mshr_hits::total         4274                       # number of WriteReq MSHR hits
system.cpu.dcache.WriteReq_mshr_miss_latency::.cpu.data       114000                       # number of WriteReq MSHR miss cycles
system.cpu.dcache.WriteReq_mshr_miss_latency::.switch_cpus.data   5077938000                       # number of WriteReq MSHR miss cycles
system.cpu.dcache.WriteReq_mshr_miss_latency::.switch_cpus_1.data  12686915996                       # number of WriteReq MSHR miss cycles
system.cpu.dcache.WriteReq_mshr_miss_latency::total  17764967996                       # number of WriteReq MSHR miss cycles
system.cpu.dcache.WriteReq_mshr_miss_rate::.cpu.data     0.500000                       # mshr miss rate for WriteReq accesses
system.cpu.dcache.WriteReq_mshr_miss_rate::.switch_cpus.data     0.012717                       # mshr miss rate for WriteReq accesses
system.cpu.dcache.WriteReq_mshr_miss_rate::.switch_cpus_1.data     0.009892                       # mshr miss rate for WriteReq accesses
system.cpu.dcache.WriteReq_mshr_miss_rate::total     0.010473                       # mshr miss rate for WriteReq accesses
system.cpu.dcache.WriteReq_mshr_misses::.cpu.data            1                       # number of WriteReq MSHR misses
system.cpu.dcache.WriteReq_mshr_misses::.switch_cpus.data        50239                       # number of WriteReq MSHR misses
system.cpu.dcache.WriteReq_mshr_misses::.switch_cpus_1.data       151015                       # number of WriteReq MSHR misses
system.cpu.dcache.WriteReq_mshr_misses::total       201255                       # number of WriteReq MSHR misses
system.cpu.dcache.avg_blocked_cycles::no_mshrs    27.779095                       # average number of cycles each access was blocked
system.cpu.dcache.avg_blocked_cycles::no_targets    29.062500                       # average number of cycles each access was blocked
system.cpu.dcache.blocked::no_mshrs              2277                       # number of cycles access was blocked
system.cpu.dcache.blocked::no_targets              16                       # number of cycles access was blocked
system.cpu.dcache.blocked_cycles::no_mshrs        63253                       # number of cycles access was blocked
system.cpu.dcache.blocked_cycles::no_targets          465                       # number of cycles access was blocked
system.cpu.dcache.demand_accesses::.cpu.data            3                       # number of demand (read+write) accesses
system.cpu.dcache.demand_accesses::.switch_cpus.data     10346944                       # number of demand (read+write) accesses
system.cpu.dcache.demand_accesses::.switch_cpus_1.data     51629943                       # number of demand (read+write) accesses
system.cpu.dcache.demand_accesses::total     61976890                       # number of demand (read+write) accesses
system.cpu.dcache.demand_avg_miss_latency::.cpu.data       113500                       # average overall miss latency
system.cpu.dcache.demand_avg_miss_latency::.switch_cpus.data 82906.016442                       # average overall miss latency
system.cpu.dcache.demand_avg_miss_latency::.switch_cpus_1.data 66380.924690                       # average overall miss latency
system.cpu.dcache.demand_avg_miss_latency::total 68452.725621                       # average overall miss latency
system.cpu.dcache.demand_avg_mshr_miss_latency::.cpu.data       111500                       # average overall mshr miss latency
system.cpu.dcache.demand_avg_mshr_miss_latency::.switch_cpus.data 80906.016442                       # average overall mshr miss latency
system.cpu.dcache.demand_avg_mshr_miss_latency::.switch_cpus_1.data 64742.598277                       # average overall mshr miss latency
system.cpu.dcache.demand_avg_mshr_miss_latency::total 67617.238820                       # average overall mshr miss latency
system.cpu.dcache.demand_hits::.cpu.data            1                       # number of demand (read+write) hits
system.cpu.dcache.demand_hits::.switch_cpus.data     10218496                       # number of demand (read+write) hits
system.cpu.dcache.demand_hits::.switch_cpus_1.data     50733821                       # number of demand (read+write) hits
system.cpu.dcache.demand_hits::total         60952318                       # number of demand (read+write) hits
system.cpu.dcache.demand_miss_latency::.cpu.data       227000                       # number of demand (read+write) miss cycles
system.cpu.dcache.demand_miss_latency::.switch_cpus.data  10649112000                       # number of demand (read+write) miss cycles
system.cpu.dcache.demand_miss_latency::.switch_cpus_1.data  59485406995                       # number of demand (read+write) miss cycles
system.cpu.dcache.demand_miss_latency::total  70134745995                       # number of demand (read+write) miss cycles
system.cpu.dcache.demand_miss_rate::.cpu.data     0.666667                       # miss rate for demand accesses
system.cpu.dcache.demand_miss_rate::.switch_cpus.data     0.012414                       # miss rate for demand accesses
system.cpu.dcache.demand_miss_rate::.switch_cpus_1.data     0.017357                       # miss rate for demand accesses
system.cpu.dcache.demand_miss_rate::total     0.016532                       # miss rate for demand accesses
system.cpu.dcache.demand_misses::.cpu.data            2                       # number of demand (read+write) misses
system.cpu.dcache.demand_misses::.switch_cpus.data       128448                       # number of demand (read+write) misses
system.cpu.dcache.demand_misses::.switch_cpus_1.data       896122                       # number of demand (read+write) misses
system.cpu.dcache.demand_misses::total        1024572                       # number of demand (read+write) misses
system.cpu.dcache.demand_mshr_hits::.switch_cpus_1.data       302307                       # number of demand (read+write) MSHR hits
system.cpu.dcache.demand_mshr_hits::total       302307                       # number of demand (read+write) MSHR hits
system.cpu.dcache.demand_mshr_miss_latency::.cpu.data       223000                       # number of demand (read+write) MSHR miss cycles
system.cpu.dcache.demand_mshr_miss_latency::.switch_cpus.data  10392216000                       # number of demand (read+write) MSHR miss cycles
system.cpu.dcache.demand_mshr_miss_latency::.switch_cpus_1.data  38445125996                       # number of demand (read+write) MSHR miss cycles
system.cpu.dcache.demand_mshr_miss_latency::total  48837564996                       # number of demand (read+write) MSHR miss cycles
system.cpu.dcache.demand_mshr_miss_rate::.cpu.data     0.666667                       # mshr miss rate for demand accesses
system.cpu.dcache.demand_mshr_miss_rate::.switch_cpus.data     0.012414                       # mshr miss rate for demand accesses
system.cpu.dcache.demand_mshr_miss_rate::.switch_cpus_1.data     0.011501                       # mshr miss rate for demand accesses
system.cpu.dcache.demand_mshr_miss_rate::total     0.011654                       # mshr miss rate for demand accesses
system.cpu.dcache.demand_mshr_misses::.cpu.data            2                       # number of demand (read+write) MSHR misses
system.cpu.dcache.demand_mshr_misses::.switch_cpus.data       128448                       # number of demand (read+write) MSHR misses
system.cpu.dcache.demand_mshr_misses::.switch_cpus_1.data       593815                       # number of demand (read+write) MSHR misses
system.cpu.dcache.demand_mshr_misses::total       722265                       # number of demand (read+write) MSHR misses
system.cpu.dcache.overall_accesses::.cpu.data            3                       # number of overall (read+write) accesses
system.cpu.dcache.overall_accesses::.switch_cpus.data     10346944                       # number of overall (read+write) accesses
system.cpu.dcache.overall_accesses::.switch_cpus_1.data     51629945                       # number of overall (read+write) accesses
system.cpu.dcache.overall_accesses::total     61976892                       # number of overall (read+write) accesses
system.cpu.dcache.overall_avg_miss_latency::.cpu.data       113500                       # average overall miss latency
system.cpu.dcache.overall_avg_miss_latency::.switch_cpus.data 82906.016442                       # average overall miss latency
system.cpu.dcache.overall_avg_miss_latency::.switch_cpus_1.data 66380.776539                       # average overall miss latency
system.cpu.dcache.overall_avg_miss_latency::total 68452.591999                       # average overall miss latency
system.cpu.dcache.overall_avg_mshr_miss_latency::.cpu.data       111500                       # average overall mshr miss latency
system.cpu.dcache.overall_avg_mshr_miss_latency::.switch_cpus.data 80906.016442                       # average overall mshr miss latency
system.cpu.dcache.overall_avg_mshr_miss_latency::.switch_cpus_1.data 64742.829855                       # average overall mshr miss latency
system.cpu.dcache.overall_avg_mshr_miss_latency::total 67617.421253                       # average overall mshr miss latency
system.cpu.dcache.overall_hits::.cpu.data            1                       # number of overall hits
system.cpu.dcache.overall_hits::.switch_cpus.data     10218496                       # number of overall hits
system.cpu.dcache.overall_hits::.switch_cpus_1.data     50733821                       # number of overall hits
system.cpu.dcache.overall_hits::total        60952318                       # number of overall hits
system.cpu.dcache.overall_miss_latency::.cpu.data       227000                       # number of overall miss cycles
system.cpu.dcache.overall_miss_latency::.switch_cpus.data  10649112000                       # number of overall miss cycles
system.cpu.dcache.overall_miss_latency::.switch_cpus_1.data  59485406995                       # number of overall miss cycles
system.cpu.dcache.overall_miss_latency::total  70134745995                       # number of overall miss cycles
system.cpu.dcache.overall_miss_rate::.cpu.data     0.666667                       # miss rate for overall accesses
system.cpu.dcache.overall_miss_rate::.switch_cpus.data     0.012414                       # miss rate for overall accesses
system.cpu.dcache.overall_miss_rate::.switch_cpus_1.data     0.017357                       # miss rate for overall accesses
system.cpu.dcache.overall_miss_rate::total     0.016532                       # miss rate for overall accesses
system.cpu.dcache.overall_misses::.cpu.data            2                       # number of overall misses
system.cpu.dcache.overall_misses::.switch_cpus.data       128448                       # number of overall misses
system.cpu.dcache.overall_misses::.switch_cpus_1.data       896124                       # number of overall misses
system.cpu.dcache.overall_misses::total       1024574                       # number of overall misses
system.cpu.dcache.overall_mshr_hits::.switch_cpus_1.data       302307                       # number of overall MSHR hits
system.cpu.dcache.overall_mshr_hits::total       302307                       # number of overall MSHR hits
system.cpu.dcache.overall_mshr_miss_latency::.cpu.data       223000                       # number of overall MSHR miss cycles
system.cpu.dcache.overall_mshr_miss_latency::.switch_cpus.data  10392216000                       # number of overall MSHR miss cycles
system.cpu.dcache.overall_mshr_miss_latency::.switch_cpus_1.data  38445392996                       # number of overall MSHR miss cycles
system.cpu.dcache.overall_mshr_miss_latency::total  48837831996                       # number of overall MSHR miss cycles
system.cpu.dcache.overall_mshr_miss_rate::.cpu.data     0.666667                       # mshr miss rate for overall accesses
system.cpu.dcache.overall_mshr_miss_rate::.switch_cpus.data     0.012414                       # mshr miss rate for overall accesses
system.cpu.dcache.overall_mshr_miss_rate::.switch_cpus_1.data     0.011501                       # mshr miss rate for overall accesses
system.cpu.dcache.overall_mshr_miss_rate::total     0.011654                       # mshr miss rate for overall accesses
system.cpu.dcache.overall_mshr_misses::.cpu.data            2                       # number of overall MSHR misses
system.cpu.dcache.overall_mshr_misses::.switch_cpus.data       128448                       # number of overall MSHR misses
system.cpu.dcache.overall_mshr_misses::.switch_cpus_1.data       593817                       # number of overall MSHR misses
system.cpu.dcache.overall_mshr_misses::total       722267                       # number of overall MSHR misses
system.cpu.dcache.pwrStateResidencyTicks::UNDEFINED 391786637000                       # Cumulative time (in ticks) in various power states
system.cpu.dcache.replacements                 719739                       # number of replacements
system.cpu.dcache.tags.age_task_id_blocks_1024::0           70                       # Occupied blocks per task id
system.cpu.dcache.tags.age_task_id_blocks_1024::1           94                       # Occupied blocks per task id
system.cpu.dcache.tags.age_task_id_blocks_1024::2          545                       # Occupied blocks per task id
system.cpu.dcache.tags.age_task_id_blocks_1024::3          313                       # Occupied blocks per task id
system.cpu.dcache.tags.age_task_id_blocks_1024::4            2                       # Occupied blocks per task id
system.cpu.dcache.tags.avg_refs             85.569724                       # Average number of references to valid blocks.
system.cpu.dcache.tags.data_accesses        124674547                       # Number of data accesses
system.cpu.dcache.tags.occ_blocks::.cpu.data     0.001187                       # Average occupied blocks per requestor
system.cpu.dcache.tags.occ_blocks::.switch_cpus.data   343.935602                       # Average occupied blocks per requestor
system.cpu.dcache.tags.occ_blocks::.switch_cpus_1.data   679.563271                       # Average occupied blocks per requestor
system.cpu.dcache.tags.occ_percent::.cpu.data     0.000001                       # Average percentage of cache occupancy
system.cpu.dcache.tags.occ_percent::.switch_cpus.data     0.335875                       # Average percentage of cache occupancy
system.cpu.dcache.tags.occ_percent::.switch_cpus_1.data     0.663636                       # Average percentage of cache occupancy
system.cpu.dcache.tags.occ_percent::total     0.999512                       # Average percentage of cache occupancy
system.cpu.dcache.tags.occ_task_id_blocks::1024         1024                       # Occupied blocks per task id
system.cpu.dcache.tags.occ_task_id_percent::1024            1                       # Percentage of cache occupancy per task id
system.cpu.dcache.tags.pwrStateResidencyTicks::UNDEFINED 391786637000                       # Cumulative time (in ticks) in various power states
system.cpu.dcache.tags.sampled_refs            720763                       # Sample count of references to valid blocks.
system.cpu.dcache.tags.tag_accesses         124674547                       # Number of tag accesses
system.cpu.dcache.tags.tagsinuse          1023.500059                       # Cycle average of tags in use
system.cpu.dcache.tags.total_refs            61675491                       # Total number of references to valid blocks.
system.cpu.dcache.tags.warmup_cycle            225000                       # Cycle when the warmup percentage was hit.
system.cpu.dcache.writebacks::.writebacks       459887                       # number of writebacks
system.cpu.dcache.writebacks::total            459887                       # number of writebacks
system.cpu.decode.BlockedCycles                     2                       # Number of cycles decode is blocked
system.cpu.decode.DecodedInsts                     32                       # Number of instructions handled by decode
system.cpu.decode.IdleCycles                       39                       # Number of cycles decode is idle
system.cpu.decode.RunCycles                         5                       # Number of cycles decode is running
system.cpu.decode.SquashCycles                      3                       # Number of cycles decode is squashing
system.cpu.dtb.rdAccesses                           2                       # TLB accesses on read requests
system.cpu.dtb.rdMisses                             1                       # TLB misses on read requests
system.cpu.dtb.walker.pwrStateResidencyTicks::UNDEFINED 391786637000                       # Cumulative time (in ticks) in various power states
system.cpu.dtb.wrAccesses                           5                       # TLB accesses on write requests
system.cpu.dtb.wrMisses                             1                       # TLB misses on write requests
system.cpu.dtb_walker_cache.avg_blocked_cycles::no_mshrs          nan                       # average number of cycles each access was blocked
system.cpu.dtb_walker_cache.avg_blocked_cycles::no_targets          nan                       # average number of cycles each access was blocked
system.cpu.dtb_walker_cache.blocked::no_mshrs            0                       # number of cycles access was blocked
system.cpu.dtb_walker_cache.blocked::no_targets            0                       # number of cycles access was blocked
system.cpu.dtb_walker_cache.blocked_cycles::no_mshrs            0                       # number of cycles access was blocked
system.cpu.dtb_walker_cache.blocked_cycles::no_targets            0                       # number of cycles access was blocked
system.cpu.dtb_walker_cache.pwrStateResidencyTicks::UNDEFINED 391786637000                       # Cumulative time (in ticks) in various power states
system.cpu.dtb_walker_cache.replacements            0                       # number of replacements
system.cpu.dtb_walker_cache.tags.avg_refs          nan                       # Average number of references to valid blocks.
system.cpu.dtb_walker_cache.tags.data_accesses            0                       # Number of data accesses
system.cpu.dtb_walker_cache.tags.pwrStateResidencyTicks::UNDEFINED 391786637000                       # Cumulative time (in ticks) in various power states
system.cpu.dtb_walker_cache.tags.sampled_refs            0                       # Sample count of references to valid blocks.
system.cpu.dtb_walker_cache.tags.tag_accesses            0                       # Number of tag accesses
system.cpu.dtb_walker_cache.tags.tagsinuse            0                       # Cycle average of tags in use
system.cpu.dtb_walker_cache.tags.total_refs            0                       # Total number of references to valid blocks.
system.cpu.dtb_walker_cache.tags.warmup_cycle            0                       # Cycle when the warmup percentage was hit.
system.cpu.fetch.Branches                           1                       # Number of branches that fetch encountered
system.cpu.fetch.CacheLines                         5                       # Number of cache lines fetched
system.cpu.fetch.Cycles                             5                       # Number of cycles fetch has run and was not squashing or blocked
system.cpu.fetch.IcacheSquashes                     3                       # Number of outstanding Icache misses that were squashed
system.cpu.fetch.Insts                             18                       # Number of instructions fetch has processed
system.cpu.fetch.PendingDrainCycles                 6                       # Number of cycles fetch has spent waiting on pipes to drain
system.cpu.fetch.SquashCycles                       5                       # Number of cycles fetch has spent squashing
system.cpu.fetch.branchRate                  0.004065                       # Number of branch fetches per cycle
system.cpu.fetch.icacheStallCycles                 36                       # Number of cycles fetch is stalled on an Icache miss
system.cpu.fetch.rate                        0.073171                       # Number of inst fetches per cycle
system.cpu.fetch.rateDist::samples                 49                       # Number of instructions fetched each cycle (Total)
system.cpu.fetch.rateDist::mean              0.653061                       # Number of instructions fetched each cycle (Total)
system.cpu.fetch.rateDist::stdev             2.097131                       # Number of instructions fetched each cycle (Total)
system.cpu.fetch.rateDist::underflows               0      0.00%      0.00% # Number of instructions fetched each cycle (Total)
system.cpu.fetch.rateDist::0                       44     89.80%     89.80% # Number of instructions fetched each cycle (Total)
system.cpu.fetch.rateDist::1                        0      0.00%     89.80% # Number of instructions fetched each cycle (Total)
system.cpu.fetch.rateDist::2                        1      2.04%     91.84% # Number of instructions fetched each cycle (Total)
system.cpu.fetch.rateDist::3                        0      0.00%     91.84% # Number of instructions fetched each cycle (Total)
system.cpu.fetch.rateDist::4                        0      0.00%     91.84% # Number of instructions fetched each cycle (Total)
system.cpu.fetch.rateDist::5                        0      0.00%     91.84% # Number of instructions fetched each cycle (Total)
system.cpu.fetch.rateDist::6                        1      2.04%     93.88% # Number of instructions fetched each cycle (Total)
system.cpu.fetch.rateDist::7                        0      0.00%     93.88% # Number of instructions fetched each cycle (Total)
system.cpu.fetch.rateDist::8                        3      6.12%    100.00% # Number of instructions fetched each cycle (Total)
system.cpu.fetch.rateDist::overflows                0      0.00%    100.00% # Number of instructions fetched each cycle (Total)
system.cpu.fetch.rateDist::min_value                0                       # Number of instructions fetched each cycle (Total)
system.cpu.fetch.rateDist::max_value                8                       # Number of instructions fetched each cycle (Total)
system.cpu.fetch.rateDist::total                   49                       # Number of instructions fetched each cycle (Total)
system.cpu.fp_regfile_reads                        56                       # number of floating regfile reads
system.cpu.icache.ReadReq_accesses::.cpu.inst            5                       # number of ReadReq accesses(hits+misses)
system.cpu.icache.ReadReq_accesses::.switch_cpus.inst     34609781                       # number of ReadReq accesses(hits+misses)
system.cpu.icache.ReadReq_accesses::.switch_cpus_1.inst     33359938                       # number of ReadReq accesses(hits+misses)
system.cpu.icache.ReadReq_accesses::total     67969724                       # number of ReadReq accesses(hits+misses)
system.cpu.icache.ReadReq_avg_miss_latency::.cpu.inst       106200                       # average ReadReq miss latency
system.cpu.icache.ReadReq_avg_miss_latency::.switch_cpus.inst 31269.041879                       # average ReadReq miss latency
system.cpu.icache.ReadReq_avg_miss_latency::.switch_cpus_1.inst 29183.446340                       # average ReadReq miss latency
system.cpu.icache.ReadReq_avg_miss_latency::total 29422.826699                       # average ReadReq miss latency
system.cpu.icache.ReadReq_avg_mshr_miss_latency::.cpu.inst       104000                       # average ReadReq mshr miss latency
system.cpu.icache.ReadReq_avg_mshr_miss_latency::.switch_cpus.inst 29269.041879                       # average ReadReq mshr miss latency
system.cpu.icache.ReadReq_avg_mshr_miss_latency::.switch_cpus_1.inst 28444.085592                       # average ReadReq mshr miss latency
system.cpu.icache.ReadReq_avg_mshr_miss_latency::total 28549.032761                       # average ReadReq mshr miss latency
system.cpu.icache.ReadReq_hits::.switch_cpus.inst     33579473                       # number of ReadReq hits
system.cpu.icache.ReadReq_hits::.switch_cpus_1.inst     25412109                       # number of ReadReq hits
system.cpu.icache.ReadReq_hits::total        58991582                       # number of ReadReq hits
system.cpu.icache.ReadReq_miss_latency::.cpu.inst       531000                       # number of ReadReq miss cycles
system.cpu.icache.ReadReq_miss_latency::.switch_cpus.inst  32216744000                       # number of ReadReq miss cycles
system.cpu.icache.ReadReq_miss_latency::.switch_cpus_1.inst 231945041143                       # number of ReadReq miss cycles
system.cpu.icache.ReadReq_miss_latency::total 264162316143                       # number of ReadReq miss cycles
system.cpu.icache.ReadReq_miss_rate::.cpu.inst            1                       # miss rate for ReadReq accesses
system.cpu.icache.ReadReq_miss_rate::.switch_cpus.inst     0.029769                       # miss rate for ReadReq accesses
system.cpu.icache.ReadReq_miss_rate::.switch_cpus_1.inst     0.238245                       # miss rate for ReadReq accesses
system.cpu.icache.ReadReq_miss_rate::total     0.132090                       # miss rate for ReadReq accesses
system.cpu.icache.ReadReq_misses::.cpu.inst            5                       # number of ReadReq misses
system.cpu.icache.ReadReq_misses::.switch_cpus.inst      1030308                       # number of ReadReq misses
system.cpu.icache.ReadReq_misses::.switch_cpus_1.inst      7947829                       # number of ReadReq misses
system.cpu.icache.ReadReq_misses::total       8978142                       # number of ReadReq misses
system.cpu.icache.ReadReq_mshr_hits::.cpu.inst            1                       # number of ReadReq MSHR hits
system.cpu.icache.ReadReq_mshr_hits::.switch_cpus_1.inst       876338                       # number of ReadReq MSHR hits
system.cpu.icache.ReadReq_mshr_hits::total       876339                       # number of ReadReq MSHR hits
system.cpu.icache.ReadReq_mshr_miss_latency::.cpu.inst       416000                       # number of ReadReq MSHR miss cycles
system.cpu.icache.ReadReq_mshr_miss_latency::.switch_cpus.inst  30156128000                       # number of ReadReq MSHR miss cycles
system.cpu.icache.ReadReq_mshr_miss_latency::.switch_cpus_1.inst 201142095267                       # number of ReadReq MSHR miss cycles
system.cpu.icache.ReadReq_mshr_miss_latency::total 231298639267                       # number of ReadReq MSHR miss cycles
system.cpu.icache.ReadReq_mshr_miss_rate::.cpu.inst     0.800000                       # mshr miss rate for ReadReq accesses
system.cpu.icache.ReadReq_mshr_miss_rate::.switch_cpus.inst     0.029769                       # mshr miss rate for ReadReq accesses
system.cpu.icache.ReadReq_mshr_miss_rate::.switch_cpus_1.inst     0.211976                       # mshr miss rate for ReadReq accesses
system.cpu.icache.ReadReq_mshr_miss_rate::total     0.119197                       # mshr miss rate for ReadReq accesses
system.cpu.icache.ReadReq_mshr_misses::.cpu.inst            4                       # number of ReadReq MSHR misses
system.cpu.icache.ReadReq_mshr_misses::.switch_cpus.inst      1030308                       # number of ReadReq MSHR misses
system.cpu.icache.ReadReq_mshr_misses::.switch_cpus_1.inst      7071491                       # number of ReadReq MSHR misses
system.cpu.icache.ReadReq_mshr_misses::total      8101803                       # number of ReadReq MSHR misses
system.cpu.icache.avg_blocked_cycles::no_mshrs    11.668868                       # average number of cycles each access was blocked
system.cpu.icache.avg_blocked_cycles::no_targets          nan                       # average number of cycles each access was blocked
system.cpu.icache.blocked::no_mshrs             17111                       # number of cycles access was blocked
system.cpu.icache.blocked::no_targets               0                       # number of cycles access was blocked
system.cpu.icache.blocked_cycles::no_mshrs       199666                       # number of cycles access was blocked
system.cpu.icache.blocked_cycles::no_targets            0                       # number of cycles access was blocked
system.cpu.icache.demand_accesses::.cpu.inst            5                       # number of demand (read+write) accesses
system.cpu.icache.demand_accesses::.switch_cpus.inst     34609781                       # number of demand (read+write) accesses
system.cpu.icache.demand_accesses::.switch_cpus_1.inst     33359938                       # number of demand (read+write) accesses
system.cpu.icache.demand_accesses::total     67969724                       # number of demand (read+write) accesses
system.cpu.icache.demand_avg_miss_latency::.cpu.inst       106200                       # average overall miss latency
system.cpu.icache.demand_avg_miss_latency::.switch_cpus.inst 31269.041879                       # average overall miss latency
system.cpu.icache.demand_avg_miss_latency::.switch_cpus_1.inst 29183.446340                       # average overall miss latency
system.cpu.icache.demand_avg_miss_latency::total 29422.826699                       # average overall miss latency
system.cpu.icache.demand_avg_mshr_miss_latency::.cpu.inst       104000                       # average overall mshr miss latency
system.cpu.icache.demand_avg_mshr_miss_latency::.switch_cpus.inst 29269.041879                       # average overall mshr miss latency
system.cpu.icache.demand_avg_mshr_miss_latency::.switch_cpus_1.inst 28444.085592                       # average overall mshr miss latency
system.cpu.icache.demand_avg_mshr_miss_latency::total 28549.032761                       # average overall mshr miss latency
system.cpu.icache.demand_hits::.switch_cpus.inst     33579473                       # number of demand (read+write) hits
system.cpu.icache.demand_hits::.switch_cpus_1.inst     25412109                       # number of demand (read+write) hits
system.cpu.icache.demand_hits::total         58991582                       # number of demand (read+write) hits
system.cpu.icache.demand_miss_latency::.cpu.inst       531000                       # number of demand (read+write) miss cycles
system.cpu.icache.demand_miss_latency::.switch_cpus.inst  32216744000                       # number of demand (read+write) miss cycles
system.cpu.icache.demand_miss_latency::.switch_cpus_1.inst 231945041143                       # number of demand (read+write) miss cycles
system.cpu.icache.demand_miss_latency::total 264162316143                       # number of demand (read+write) miss cycles
system.cpu.icache.demand_miss_rate::.cpu.inst            1                       # miss rate for demand accesses
system.cpu.icache.demand_miss_rate::.switch_cpus.inst     0.029769                       # miss rate for demand accesses
system.cpu.icache.demand_miss_rate::.switch_cpus_1.inst     0.238245                       # miss rate for demand accesses
system.cpu.icache.demand_miss_rate::total     0.132090                       # miss rate for demand accesses
system.cpu.icache.demand_misses::.cpu.inst            5                       # number of demand (read+write) misses
system.cpu.icache.demand_misses::.switch_cpus.inst      1030308                       # number of demand (read+write) misses
system.cpu.icache.demand_misses::.switch_cpus_1.inst      7947829                       # number of demand (read+write) misses
system.cpu.icache.demand_misses::total        8978142                       # number of demand (read+write) misses
system.cpu.icache.demand_mshr_hits::.cpu.inst            1                       # number of demand (read+write) MSHR hits
system.cpu.icache.demand_mshr_hits::.switch_cpus_1.inst       876338                       # number of demand (read+write) MSHR hits
system.cpu.icache.demand_mshr_hits::total       876339                       # number of demand (read+write) MSHR hits
system.cpu.icache.demand_mshr_miss_latency::.cpu.inst       416000                       # number of demand (read+write) MSHR miss cycles
system.cpu.icache.demand_mshr_miss_latency::.switch_cpus.inst  30156128000                       # number of demand (read+write) MSHR miss cycles
system.cpu.icache.demand_mshr_miss_latency::.switch_cpus_1.inst 201142095267                       # number of demand (read+write) MSHR miss cycles
system.cpu.icache.demand_mshr_miss_latency::total 231298639267                       # number of demand (read+write) MSHR miss cycles
system.cpu.icache.demand_mshr_miss_rate::.cpu.inst     0.800000                       # mshr miss rate for demand accesses
system.cpu.icache.demand_mshr_miss_rate::.switch_cpus.inst     0.029769                       # mshr miss rate for demand accesses
system.cpu.icache.demand_mshr_miss_rate::.switch_cpus_1.inst     0.211976                       # mshr miss rate for demand accesses
system.cpu.icache.demand_mshr_miss_rate::total     0.119197                       # mshr miss rate for demand accesses
system.cpu.icache.demand_mshr_misses::.cpu.inst            4                       # number of demand (read+write) MSHR misses
system.cpu.icache.demand_mshr_misses::.switch_cpus.inst      1030308                       # number of demand (read+write) MSHR misses
system.cpu.icache.demand_mshr_misses::.switch_cpus_1.inst      7071491                       # number of demand (read+write) MSHR misses
system.cpu.icache.demand_mshr_misses::total      8101803                       # number of demand (read+write) MSHR misses
system.cpu.icache.overall_accesses::.cpu.inst            5                       # number of overall (read+write) accesses
system.cpu.icache.overall_accesses::.switch_cpus.inst     34609781                       # number of overall (read+write) accesses
system.cpu.icache.overall_accesses::.switch_cpus_1.inst     33359938                       # number of overall (read+write) accesses
system.cpu.icache.overall_accesses::total     67969724                       # number of overall (read+write) accesses
system.cpu.icache.overall_avg_miss_latency::.cpu.inst       106200                       # average overall miss latency
system.cpu.icache.overall_avg_miss_latency::.switch_cpus.inst 31269.041879                       # average overall miss latency
system.cpu.icache.overall_avg_miss_latency::.switch_cpus_1.inst 29183.446340                       # average overall miss latency
system.cpu.icache.overall_avg_miss_latency::total 29422.826699                       # average overall miss latency
system.cpu.icache.overall_avg_mshr_miss_latency::.cpu.inst       104000                       # average overall mshr miss latency
system.cpu.icache.overall_avg_mshr_miss_latency::.switch_cpus.inst 29269.041879                       # average overall mshr miss latency
system.cpu.icache.overall_avg_mshr_miss_latency::.switch_cpus_1.inst 28444.085592                       # average overall mshr miss latency
system.cpu.icache.overall_avg_mshr_miss_latency::total 28549.032761                       # average overall mshr miss latency
system.cpu.icache.overall_hits::.switch_cpus.inst     33579473                       # number of overall hits
system.cpu.icache.overall_hits::.switch_cpus_1.inst     25412109                       # number of overall hits
system.cpu.icache.overall_hits::total        58991582                       # number of overall hits
system.cpu.icache.overall_miss_latency::.cpu.inst       531000                       # number of overall miss cycles
system.cpu.icache.overall_miss_latency::.switch_cpus.inst  32216744000                       # number of overall miss cycles
system.cpu.icache.overall_miss_latency::.switch_cpus_1.inst 231945041143                       # number of overall miss cycles
system.cpu.icache.overall_miss_latency::total 264162316143                       # number of overall miss cycles
system.cpu.icache.overall_miss_rate::.cpu.inst            1                       # miss rate for overall accesses
system.cpu.icache.overall_miss_rate::.switch_cpus.inst     0.029769                       # miss rate for overall accesses
system.cpu.icache.overall_miss_rate::.switch_cpus_1.inst     0.238245                       # miss rate for overall accesses
system.cpu.icache.overall_miss_rate::total     0.132090                       # miss rate for overall accesses
system.cpu.icache.overall_misses::.cpu.inst            5                       # number of overall misses
system.cpu.icache.overall_misses::.switch_cpus.inst      1030308                       # number of overall misses
system.cpu.icache.overall_misses::.switch_cpus_1.inst      7947829                       # number of overall misses
system.cpu.icache.overall_misses::total       8978142                       # number of overall misses
system.cpu.icache.overall_mshr_hits::.cpu.inst            1                       # number of overall MSHR hits
system.cpu.icache.overall_mshr_hits::.switch_cpus_1.inst       876338                       # number of overall MSHR hits
system.cpu.icache.overall_mshr_hits::total       876339                       # number of overall MSHR hits
system.cpu.icache.overall_mshr_miss_latency::.cpu.inst       416000                       # number of overall MSHR miss cycles
system.cpu.icache.overall_mshr_miss_latency::.switch_cpus.inst  30156128000                       # number of overall MSHR miss cycles
system.cpu.icache.overall_mshr_miss_latency::.switch_cpus_1.inst 201142095267                       # number of overall MSHR miss cycles
system.cpu.icache.overall_mshr_miss_latency::total 231298639267                       # number of overall MSHR miss cycles
system.cpu.icache.overall_mshr_miss_rate::.cpu.inst     0.800000                       # mshr miss rate for overall accesses
system.cpu.icache.overall_mshr_miss_rate::.switch_cpus.inst     0.029769                       # mshr miss rate for overall accesses
system.cpu.icache.overall_mshr_miss_rate::.switch_cpus_1.inst     0.211976                       # mshr miss rate for overall accesses
system.cpu.icache.overall_mshr_miss_rate::total     0.119197                       # mshr miss rate for overall accesses
system.cpu.icache.overall_mshr_misses::.cpu.inst            4                       # number of overall MSHR misses
system.cpu.icache.overall_mshr_misses::.switch_cpus.inst      1030308                       # number of overall MSHR misses
system.cpu.icache.overall_mshr_misses::.switch_cpus_1.inst      7071491                       # number of overall MSHR misses
system.cpu.icache.overall_mshr_misses::total      8101803                       # number of overall MSHR misses
system.cpu.icache.pwrStateResidencyTicks::UNDEFINED 391786637000                       # Cumulative time (in ticks) in various power states
system.cpu.icache.replacements                8100685                       # number of replacements
system.cpu.icache.tags.age_task_id_blocks_1024::0           61                       # Occupied blocks per task id
system.cpu.icache.tags.age_task_id_blocks_1024::1          189                       # Occupied blocks per task id
system.cpu.icache.tags.age_task_id_blocks_1024::2            6                       # Occupied blocks per task id
system.cpu.icache.tags.avg_refs              8.281291                       # Average number of references to valid blocks.
system.cpu.icache.tags.data_accesses        144041250                       # Number of data accesses
system.cpu.icache.tags.occ_blocks::.cpu.inst     0.000907                       # Average occupied blocks per requestor
system.cpu.icache.tags.occ_blocks::.switch_cpus.inst    85.226978                       # Average occupied blocks per requestor
system.cpu.icache.tags.occ_blocks::.switch_cpus_1.inst   170.721355                       # Average occupied blocks per requestor
system.cpu.icache.tags.occ_percent::.cpu.inst     0.000004                       # Average percentage of cache occupancy
system.cpu.icache.tags.occ_percent::.switch_cpus.inst     0.332918                       # Average percentage of cache occupancy
system.cpu.icache.tags.occ_percent::.switch_cpus_1.inst     0.666880                       # Average percentage of cache occupancy
system.cpu.icache.tags.occ_percent::total     0.999802                       # Average percentage of cache occupancy
system.cpu.icache.tags.occ_task_id_blocks::1024          256                       # Occupied blocks per task id
system.cpu.icache.tags.occ_task_id_percent::1024            1                       # Percentage of cache occupancy per task id
system.cpu.icache.tags.pwrStateResidencyTicks::UNDEFINED 391786637000                       # Cumulative time (in ticks) in various power states
system.cpu.icache.tags.sampled_refs           8101802                       # Sample count of references to valid blocks.
system.cpu.icache.tags.tag_accesses         144041250                       # Number of tag accesses
system.cpu.icache.tags.tagsinuse           255.949240                       # Cycle average of tags in use
system.cpu.icache.tags.total_refs            67093384                       # Total number of references to valid blocks.
system.cpu.icache.tags.warmup_cycle            107000                       # Cycle when the warmup percentage was hit.
system.cpu.icache.writebacks::.writebacks      8100685                       # number of writebacks
system.cpu.icache.writebacks::total           8100685                       # number of writebacks
system.cpu.idleCycles                             197                       # Total number of cycles that the CPU has spent unscheduled due to idling
system.cpu.iew.branchMispredicts                    1                       # Number of branch mispredicts detected at execute
system.cpu.iew.exec_branches                        1                       # Number of branches executed
system.cpu.iew.exec_nop                             0                       # number of nop insts executed
system.cpu.iew.exec_rate                     0.085366                       # Inst execution rate
system.cpu.iew.exec_refs                            7                       # number of memory reference insts executed
system.cpu.iew.exec_stores                          5                       # Number of stores executed
system.cpu.iew.exec_swp                             0                       # number of swp insts executed
system.cpu.iew.iewBlockCycles                       2                       # Number of cycles IEW is blocking
system.cpu.iew.iewDispLoadInsts                     2                       # Number of dispatched load instructions
system.cpu.iew.iewDispNonSpecInsts                  0                       # Number of dispatched non-speculative instructions
system.cpu.iew.iewDispSquashedInsts                 0                       # Number of squashed instructions skipped by dispatch
system.cpu.iew.iewDispStoreInsts                    8                       # Number of dispatched store instructions
system.cpu.iew.iewDispatchedInsts                  32                       # Number of instructions dispatched to IQ
system.cpu.iew.iewExecLoadInsts                     2                       # Number of load instructions executed
system.cpu.iew.iewExecSquashedInsts                 3                       # Number of squashed instructions skipped in execute
system.cpu.iew.iewExecutedInsts                    21                       # Number of executed instructions
system.cpu.iew.iewIQFullEvents                      0                       # Number of times the IQ has become full, causing a stall
system.cpu.iew.iewIdleCycles                        0                       # Number of cycles IEW is idle
system.cpu.iew.iewLSQFullEvents                     0                       # Number of times the LSQ has become full, causing a stall
system.cpu.iew.iewSquashCycles                      3                       # Number of cycles IEW is squashing
system.cpu.iew.iewUnblockCycles                     0                       # Number of cycles IEW is unblocking
system.cpu.iew.lsq.thread0.blockedLoads             0                       # Number of blocked loads due to partial load-store forwarding
system.cpu.iew.lsq.thread0.cacheBlocked             0                       # Number of times an access to memory failed due to the cache being blocked
system.cpu.iew.lsq.thread0.forwLoads                1                       # Number of loads that had data forwarded from stores
system.cpu.iew.lsq.thread0.ignoredResponses            0                       # Number of memory responses ignored because the instruction is squashed
system.cpu.iew.lsq.thread0.invAddrLoads             0                       # Number of loads ignored due to an invalid address
system.cpu.iew.lsq.thread0.invAddrSwpfs             0                       # Number of software prefetches ignored due to an invalid address
system.cpu.iew.lsq.thread0.memOrderViolation            0                       # Number of memory ordering violations
system.cpu.iew.lsq.thread0.rescheduledLoads            0                       # Number of loads that were rescheduled
system.cpu.iew.lsq.thread0.squashedLoads            2                       # Number of loads squashed
system.cpu.iew.lsq.thread0.squashedStores            6                       # Number of stores squashed
system.cpu.iew.memOrderViolationEvents              0                       # Number of memory order violations
system.cpu.iew.predictedNotTakenIncorrect            1                       # Number of branches that were predicted not taken incorrectly
system.cpu.iew.predictedTakenIncorrect              0                       # Number of branches that were predicted taken incorrectly
system.cpu.iew.wb_consumers                        18                       # num instructions consuming a value
system.cpu.iew.wb_count                            20                       # cumulative count of insts written-back
system.cpu.iew.wb_fanout                     0.555556                       # average fanout of values written-back
system.cpu.iew.wb_producers                        10                       # num instructions producing a value
system.cpu.iew.wb_rate                       0.081301                       # insts written-back per cycle
system.cpu.iew.wb_sent                             20                       # cumulative count of insts sent to commit
system.cpu.int_regfile_reads                       77                       # number of integer regfile reads
system.cpu.int_regfile_writes                      14                       # number of integer regfile writes
system.cpu.interrupts.pwrStateResidencyTicks::UNDEFINED 391786637000                       # Cumulative time (in ticks) in various power states
system.cpu.ipc                               0.012195                       # IPC: Instructions Per Cycle
system.cpu.ipc_total                         0.012195                       # IPC: Total IPC of All Threads
system.cpu.iq.FU_type_0::No_OpClass                 0      0.00%      0.00% # Type of FU issued
system.cpu.iq.FU_type_0::IntAlu                    16     66.67%     66.67% # Type of FU issued
system.cpu.iq.FU_type_0::IntMult                    0      0.00%     66.67% # Type of FU issued
system.cpu.iq.FU_type_0::IntDiv                     0      0.00%     66.67% # Type of FU issued
system.cpu.iq.FU_type_0::FloatAdd                   0      0.00%     66.67% # Type of FU issued
system.cpu.iq.FU_type_0::FloatCmp                   0      0.00%     66.67% # Type of FU issued
system.cpu.iq.FU_type_0::FloatCvt                   0      0.00%     66.67% # Type of FU issued
system.cpu.iq.FU_type_0::FloatMult                  0      0.00%     66.67% # Type of FU issued
system.cpu.iq.FU_type_0::FloatMultAcc               0      0.00%     66.67% # Type of FU issued
system.cpu.iq.FU_type_0::FloatDiv                   0      0.00%     66.67% # Type of FU issued
system.cpu.iq.FU_type_0::FloatMisc                  0      0.00%     66.67% # Type of FU issued
system.cpu.iq.FU_type_0::FloatSqrt                  0      0.00%     66.67% # Type of FU issued
system.cpu.iq.FU_type_0::SimdAdd                    0      0.00%     66.67% # Type of FU issued
system.cpu.iq.FU_type_0::SimdAddAcc                 0      0.00%     66.67% # Type of FU issued
system.cpu.iq.FU_type_0::SimdAlu                    0      0.00%     66.67% # Type of FU issued
system.cpu.iq.FU_type_0::SimdCmp                    0      0.00%     66.67% # Type of FU issued
system.cpu.iq.FU_type_0::SimdCvt                    0      0.00%     66.67% # Type of FU issued
system.cpu.iq.FU_type_0::SimdMisc                   0      0.00%     66.67% # Type of FU issued
system.cpu.iq.FU_type_0::SimdMult                   0      0.00%     66.67% # Type of FU issued
system.cpu.iq.FU_type_0::SimdMultAcc                0      0.00%     66.67% # Type of FU issued
system.cpu.iq.FU_type_0::SimdShift                  0      0.00%     66.67% # Type of FU issued
system.cpu.iq.FU_type_0::SimdShiftAcc               0      0.00%     66.67% # Type of FU issued
system.cpu.iq.FU_type_0::SimdDiv                    0      0.00%     66.67% # Type of FU issued
system.cpu.iq.FU_type_0::SimdSqrt                   0      0.00%     66.67% # Type of FU issued
system.cpu.iq.FU_type_0::SimdFloatAdd               0      0.00%     66.67% # Type of FU issued
system.cpu.iq.FU_type_0::SimdFloatAlu               0      0.00%     66.67% # Type of FU issued
system.cpu.iq.FU_type_0::SimdFloatCmp               0      0.00%     66.67% # Type of FU issued
system.cpu.iq.FU_type_0::SimdFloatCvt               0      0.00%     66.67% # Type of FU issued
system.cpu.iq.FU_type_0::SimdFloatDiv               0      0.00%     66.67% # Type of FU issued
system.cpu.iq.FU_type_0::SimdFloatMisc              0      0.00%     66.67% # Type of FU issued
system.cpu.iq.FU_type_0::SimdFloatMult              0      0.00%     66.67% # Type of FU issued
system.cpu.iq.FU_type_0::SimdFloatMultAcc            0      0.00%     66.67% # Type of FU issued
system.cpu.iq.FU_type_0::SimdFloatSqrt              0      0.00%     66.67% # Type of FU issued
system.cpu.iq.FU_type_0::SimdReduceAdd              0      0.00%     66.67% # Type of FU issued
system.cpu.iq.FU_type_0::SimdReduceAlu              0      0.00%     66.67% # Type of FU issued
system.cpu.iq.FU_type_0::SimdReduceCmp              0      0.00%     66.67% # Type of FU issued
system.cpu.iq.FU_type_0::SimdFloatReduceAdd            0      0.00%     66.67% # Type of FU issued
system.cpu.iq.FU_type_0::SimdFloatReduceCmp            0      0.00%     66.67% # Type of FU issued
system.cpu.iq.FU_type_0::SimdAes                    0      0.00%     66.67% # Type of FU issued
system.cpu.iq.FU_type_0::SimdAesMix                 0      0.00%     66.67% # Type of FU issued
system.cpu.iq.FU_type_0::SimdSha1Hash               0      0.00%     66.67% # Type of FU issued
system.cpu.iq.FU_type_0::SimdSha1Hash2              0      0.00%     66.67% # Type of FU issued
system.cpu.iq.FU_type_0::SimdSha256Hash             0      0.00%     66.67% # Type of FU issued
system.cpu.iq.FU_type_0::SimdSha256Hash2            0      0.00%     66.67% # Type of FU issued
system.cpu.iq.FU_type_0::SimdShaSigma2              0      0.00%     66.67% # Type of FU issued
system.cpu.iq.FU_type_0::SimdShaSigma3              0      0.00%     66.67% # Type of FU issued
system.cpu.iq.FU_type_0::SimdPredAlu                0      0.00%     66.67% # Type of FU issued
system.cpu.iq.FU_type_0::MemRead                    2      8.33%     75.00% # Type of FU issued
system.cpu.iq.FU_type_0::MemWrite                   6     25.00%    100.00% # Type of FU issued
system.cpu.iq.FU_type_0::FloatMemRead               0      0.00%    100.00% # Type of FU issued
system.cpu.iq.FU_type_0::FloatMemWrite              0      0.00%    100.00% # Type of FU issued
system.cpu.iq.FU_type_0::IprAccess                  0      0.00%    100.00% # Type of FU issued
system.cpu.iq.FU_type_0::InstPrefetch               0      0.00%    100.00% # Type of FU issued
system.cpu.iq.FU_type_0::total                     24                       # Type of FU issued
system.cpu.iq.fp_alu_accesses                       0                       # Number of floating point alu accesses
system.cpu.iq.fp_inst_queue_reads                   0                       # Number of floating instruction queue reads
system.cpu.iq.fp_inst_queue_wakeup_accesses            0                       # Number of floating instruction queue wakeup accesses
system.cpu.iq.fp_inst_queue_writes                  0                       # Number of floating instruction queue writes
system.cpu.iq.fu_busy_cnt                           0                       # FU busy when requested
system.cpu.iq.fu_busy_rate                          0                       # FU busy rate (busy events/executed inst)
system.cpu.iq.fu_full::No_OpClass                   0                       # attempts to use FU when none available
system.cpu.iq.fu_full::IntAlu                       0                       # attempts to use FU when none available
system.cpu.iq.fu_full::IntMult                      0                       # attempts to use FU when none available
system.cpu.iq.fu_full::IntDiv                       0                       # attempts to use FU when none available
system.cpu.iq.fu_full::FloatAdd                     0                       # attempts to use FU when none available
system.cpu.iq.fu_full::FloatCmp                     0                       # attempts to use FU when none available
system.cpu.iq.fu_full::FloatCvt                     0                       # attempts to use FU when none available
system.cpu.iq.fu_full::FloatMult                    0                       # attempts to use FU when none available
system.cpu.iq.fu_full::FloatMultAcc                 0                       # attempts to use FU when none available
system.cpu.iq.fu_full::FloatDiv                     0                       # attempts to use FU when none available
system.cpu.iq.fu_full::FloatMisc                    0                       # attempts to use FU when none available
system.cpu.iq.fu_full::FloatSqrt                    0                       # attempts to use FU when none available
system.cpu.iq.fu_full::SimdAdd                      0                       # attempts to use FU when none available
system.cpu.iq.fu_full::SimdAddAcc                   0                       # attempts to use FU when none available
system.cpu.iq.fu_full::SimdAlu                      0                       # attempts to use FU when none available
system.cpu.iq.fu_full::SimdCmp                      0                       # attempts to use FU when none available
system.cpu.iq.fu_full::SimdCvt                      0                       # attempts to use FU when none available
system.cpu.iq.fu_full::SimdMisc                     0                       # attempts to use FU when none available
system.cpu.iq.fu_full::SimdMult                     0                       # attempts to use FU when none available
system.cpu.iq.fu_full::SimdMultAcc                  0                       # attempts to use FU when none available
system.cpu.iq.fu_full::SimdShift                    0                       # attempts to use FU when none available
system.cpu.iq.fu_full::SimdShiftAcc                 0                       # attempts to use FU when none available
system.cpu.iq.fu_full::SimdDiv                      0                       # attempts to use FU when none available
system.cpu.iq.fu_full::SimdSqrt                     0                       # attempts to use FU when none available
system.cpu.iq.fu_full::SimdFloatAdd                 0                       # attempts to use FU when none available
system.cpu.iq.fu_full::SimdFloatAlu                 0                       # attempts to use FU when none available
system.cpu.iq.fu_full::SimdFloatCmp                 0                       # attempts to use FU when none available
system.cpu.iq.fu_full::SimdFloatCvt                 0                       # attempts to use FU when none available
[...]
system.switch_cpus_1.iq.fu_full::FloatCmp            0      0.00%     93.30% # attempts to use FU when none available
system.switch_cpus_1.iq.fu_full::FloatCvt           14      0.00%     93.30% # attempts to use FU when none available
system.switch_cpus_1.iq.fu_full::FloatMult            0      0.00%     93.30% # attempts to use FU when none available
system.switch_cpus_1.iq.fu_full::FloatMultAcc            0      0.00%     93.30% # attempts to use FU when none available
system.switch_cpus_1.iq.fu_full::FloatDiv            0      0.00%     93.30% # attempts to use FU when none available
system.switch_cpus_1.iq.fu_full::FloatMisc            0      0.00%     93.30% # attempts to use FU when none available
system.switch_cpus_1.iq.fu_full::FloatSqrt            0      0.00%     93.30% # attempts to use FU when none available
system.switch_cpus_1.iq.fu_full::SimdAdd            3      0.00%     93.30% # attempts to use FU when none available
system.switch_cpus_1.iq.fu_full::SimdAddAcc            0      0.00%     93.30% # attempts to use FU when none available
system.switch_cpus_1.iq.fu_full::SimdAlu         1822      0.03%     93.33% # attempts to use FU when none available
system.switch_cpus_1.iq.fu_full::SimdCmp            0      0.00%     93.33% # attempts to use FU when none available
system.switch_cpus_1.iq.fu_full::SimdCvt          142      0.00%     93.34% # attempts to use FU when none available
system.switch_cpus_1.iq.fu_full::SimdMisc          483      0.01%     93.35% # attempts to use FU when none available
system.switch_cpus_1.iq.fu_full::SimdMult            0      0.00%     93.35% # attempts to use FU when none available
system.switch_cpus_1.iq.fu_full::SimdMultAcc            0      0.00%     93.35% # attempts to use FU when none available
system.switch_cpus_1.iq.fu_full::SimdShift          135      0.00%     93.35% # attempts to use FU when none available
system.switch_cpus_1.iq.fu_full::SimdShiftAcc            0      0.00%     93.35% # attempts to use FU when none available
system.switch_cpus_1.iq.fu_full::SimdDiv            0      0.00%     93.35% # attempts to use FU when none available
system.switch_cpus_1.iq.fu_full::SimdSqrt            0      0.00%     93.35% # attempts to use FU when none available
system.switch_cpus_1.iq.fu_full::SimdFloatAdd            0      0.00%     93.35% # attempts to use FU when none available
system.switch_cpus_1.iq.fu_full::SimdFloatAlu            0      0.00%     93.35% # attempts to use FU when none available
system.switch_cpus_1.iq.fu_full::SimdFloatCmp            0      0.00%     93.35% # attempts to use FU when none available
system.switch_cpus_1.iq.fu_full::SimdFloatCvt            0      0.00%     93.35% # attempts to use FU when none available
system.switch_cpus_1.iq.fu_full::SimdFloatDiv            0      0.00%     93.35% # attempts to use FU when none available
system.switch_cpus_1.iq.fu_full::SimdFloatMisc            0      0.00%     93.35% # attempts to use FU when none available
system.switch_cpus_1.iq.fu_full::SimdFloatMult            0      0.00%     93.35% # attempts to use FU when none available
system.switch_cpus_1.iq.fu_full::SimdFloatMultAcc            0      0.00%     93.35% # attempts to use FU when none available
system.switch_cpus_1.iq.fu_full::SimdFloatSqrt            0      0.00%     93.35% # attempts to use FU when none available
system.switch_cpus_1.iq.fu_full::SimdReduceAdd            0      0.00%     93.35% # attempts to use FU when none available
system.switch_cpus_1.iq.fu_full::SimdReduceAlu            0      0.00%     93.35% # attempts to use FU when none available
system.switch_cpus_1.iq.fu_full::SimdReduceCmp            0      0.00%     93.35% # attempts to use FU when none available
system.switch_cpus_1.iq.fu_full::SimdFloatReduceAdd            0      0.00%     93.35% # attempts to use FU when none available
system.switch_cpus_1.iq.fu_full::SimdFloatReduceCmp            0      0.00%     93.35% # attempts to use FU when none available
system.switch_cpus_1.iq.fu_full::SimdAes            0      0.00%     93.35% # attempts to use FU when none available
system.switch_cpus_1.iq.fu_full::SimdAesMix            0      0.00%     93.35% # attempts to use FU when none available
system.switch_cpus_1.iq.fu_full::SimdSha1Hash            0      0.00%     93.35% # attempts to use FU when none available
system.switch_cpus_1.iq.fu_full::SimdSha1Hash2            0      0.00%     93.35% # attempts to use FU when none available
system.switch_cpus_1.iq.fu_full::SimdSha256Hash            0      0.00%     93.35% # attempts to use FU when none available
system.switch_cpus_1.iq.fu_full::SimdSha256Hash2            0      0.00%     93.35% # attempts to use FU when none available
system.switch_cpus_1.iq.fu_full::SimdShaSigma2            0      0.00%     93.35% # attempts to use FU when none available
system.switch_cpus_1.iq.fu_full::SimdShaSigma3            0      0.00%     93.35% # attempts to use FU when none available
system.switch_cpus_1.iq.fu_full::SimdPredAlu            0      0.00%     93.35% # attempts to use FU when none available
system.switch_cpus_1.iq.fu_full::MemRead       227271      4.28%     97.63% # attempts to use FU when none available
system.switch_cpus_1.iq.fu_full::MemWrite        93276      1.76%     99.39% # attempts to use FU when none available
system.switch_cpus_1.iq.fu_full::FloatMemRead          880      0.02%     99.40% # attempts to use FU when none available
system.switch_cpus_1.iq.fu_full::FloatMemWrite        31628      0.60%    100.00% # attempts to use FU when none available
system.switch_cpus_1.iq.fu_full::IprAccess            0      0.00%    100.00% # attempts to use FU when none available
system.switch_cpus_1.iq.fu_full::InstPrefetch            0      0.00%    100.00% # attempts to use FU when none available
system.switch_cpus_1.iq.int_alu_accesses    320152323                       # Number of integer alu accesses
system.switch_cpus_1.iq.int_inst_queue_reads    870927796                       # Number of integer instruction queue reads
system.switch_cpus_1.iq.int_inst_queue_wakeup_accesses    293801885                       # Number of integer instruction queue wakeup accesses
system.switch_cpus_1.iq.int_inst_queue_writes    562541677                       # Number of integer instruction queue writes
system.switch_cpus_1.iq.iqInstsAdded        378985092                       # Number of instructions added to the IQ (excludes non-spec)
system.switch_cpus_1.iq.iqInstsIssued       319633732                       # Number of instructions issued
system.switch_cpus_1.iq.iqNonSpecInstsAdded       542284                       # Number of non-speculative instructions added to the IQ
system.switch_cpus_1.iq.iqSquashedInstsExamined    185316937                       # Number of squashed instructions iterated over during squash; mainly for profiling
system.switch_cpus_1.iq.iqSquashedInstsIssued      1942211                       # Number of squashed instructions issued
system.switch_cpus_1.iq.iqSquashedNonSpecRemoved       492967                       # Number of squashed non-spec instructions that were removed
system.switch_cpus_1.iq.iqSquashedOperandsExamined    255047925                       # Number of squashed operands that are examined and possibly removed from graph
system.switch_cpus_1.iq.issued_per_cycle::samples    228054844                       # Number of insts issued each cycle
system.switch_cpus_1.iq.issued_per_cycle::mean     1.401565                       # Number of insts issued each cycle
system.switch_cpus_1.iq.issued_per_cycle::stdev     2.215624                       # Number of insts issued each cycle
system.switch_cpus_1.iq.issued_per_cycle::underflows            0      0.00%      0.00% # Number of insts issued each cycle
system.switch_cpus_1.iq.issued_per_cycle::0    142141880     62.33%     62.33% # Number of insts issued each cycle
system.switch_cpus_1.iq.issued_per_cycle::1     16694107      7.32%     69.65% # Number of insts issued each cycle
system.switch_cpus_1.iq.issued_per_cycle::2     14231891      6.24%     75.89% # Number of insts issued each cycle
system.switch_cpus_1.iq.issued_per_cycle::3     11581201      5.08%     80.97% # Number of insts issued each cycle
system.switch_cpus_1.iq.issued_per_cycle::4     11166835      4.90%     85.86% # Number of insts issued each cycle
system.switch_cpus_1.iq.issued_per_cycle::5     11277275      4.94%     90.81% # Number of insts issued each cycle
system.switch_cpus_1.iq.issued_per_cycle::6     11363845      4.98%     95.79% # Number of insts issued each cycle
system.switch_cpus_1.iq.issued_per_cycle::7      6287025      2.76%     98.55% # Number of insts issued each cycle
system.switch_cpus_1.iq.issued_per_cycle::8      3310785      1.45%    100.00% # Number of insts issued each cycle
system.switch_cpus_1.iq.issued_per_cycle::overflows            0      0.00%    100.00% # Number of insts issued each cycle
system.switch_cpus_1.iq.issued_per_cycle::min_value            0                       # Number of insts issued each cycle
system.switch_cpus_1.iq.issued_per_cycle::max_value            8                       # Number of insts issued each cycle
system.switch_cpus_1.iq.issued_per_cycle::total    228054844                       # Number of insts issued each cycle
system.switch_cpus_1.iq.rate                 1.223210                       # Inst issue rate
system.switch_cpus_1.iq.vec_alu_accesses            0                       # Number of vector alu accesses
system.switch_cpus_1.iq.vec_inst_queue_reads            0                       # Number of vector instruction queue reads
system.switch_cpus_1.iq.vec_inst_queue_wakeup_accesses            0                       # Number of vector instruction queue wakeup accesses
system.switch_cpus_1.iq.vec_inst_queue_writes            0                       # Number of vector instruction queue writes
system.switch_cpus_1.itb.rdAccesses                 0                       # TLB accesses on read requests
system.switch_cpus_1.itb.rdMisses                   0                       # TLB misses on read requests
system.switch_cpus_1.itb.walker.pwrStateResidencyTicks::UNDEFINED 391786637000                       # Cumulative time (in ticks) in various power states
system.switch_cpus_1.itb.wrAccesses          33370657                       # TLB accesses on write requests
system.switch_cpus_1.itb.wrMisses              334996                       # TLB misses on write requests
system.switch_cpus_1.memDep0.conflictingLoads      2677709                       # Number of conflicting loads.
system.switch_cpus_1.memDep0.conflictingStores      2231146                       # Number of conflicting stores.
system.switch_cpus_1.memDep0.insertedLoads     51010154                       # Number of loads inserted to the mem dependence unit.
system.switch_cpus_1.memDep0.insertedStores     27922888                       # Number of stores inserted to the mem dependence unit.
system.switch_cpus_1.misc_regfile_reads     135893337                       # number of misc regfile reads
system.switch_cpus_1.misc_regfile_writes           10                       # number of misc regfile writes
system.switch_cpus_1.numCycles              261307400                       # number of cpu cycles simulated
system.switch_cpus_1.numWorkItemsCompleted            0                       # number of work items this cpu completed
system.switch_cpus_1.numWorkItemsStarted            0                       # number of work items this cpu started
system.switch_cpus_1.pwrStateResidencyTicks::OFF 391786637000                       # Cumulative time (in ticks) in various power states
system.switch_cpus_1.rename.BlockCycles      29675959                       # Number of cycles rename is blocking
system.switch_cpus_1.rename.CommittedMaps    219271765                       # Number of HB maps that are committed
system.switch_cpus_1.rename.FullRegisterEvents           48                       # Number of times there has been no free registers
system.switch_cpus_1.rename.IQFullEvents       966560                       # Number of times rename has blocked due to IQ full
system.switch_cpus_1.rename.IdleCycles      121753950                       # Number of cycles rename is idle
system.switch_cpus_1.rename.LQFullEvents        91516                       # Number of times rename has blocked due to LQ full
system.switch_cpus_1.rename.ROBFullEvents       174829                       # Number of times rename has blocked due to ROB full
system.switch_cpus_1.rename.RenameLookups   1040390931                       # Number of register rename lookups that rename has made
system.switch_cpus_1.rename.RenamedInsts    429491760                       # Number of instructions processed by rename
system.switch_cpus_1.rename.RenamedOperands    472238643                       # Number of destination operands rename has renamed
system.switch_cpus_1.rename.RunCycles        60928227                       # Number of cycles rename is running
system.switch_cpus_1.rename.SQFullEvents      5566469                       # Number of times rename has blocked due to SQ full
system.switch_cpus_1.rename.SquashCycles      8624033                       # Number of cycles rename is squashing
system.switch_cpus_1.rename.UnblockCycles      7053294                       # Number of cycles rename is unblocking
system.switch_cpus_1.rename.UndoneMaps      252966841                       # Number of HB maps that are undone due to squashing
system.switch_cpus_1.rename.fp_rename_lookups      2619610                       # Number of floating rename lookups
system.switch_cpus_1.rename.int_rename_lookups    618365342                       # Number of integer rename lookups
system.switch_cpus_1.rename.serializeStallCycles        19377                       # count of cycles rename stalled for serializing inst
system.switch_cpus_1.rename.serializingInsts          979                       # count of serializing insts renamed
system.switch_cpus_1.rename.skidInsts         5764108                       # count of insts added to the skid buffer
system.switch_cpus_1.rename.tempSerializingInsts          947                       # count of temporary serializing insts renamed
system.switch_cpus_1.rob.rob_reads          569752855                       # The number of ROB reads
system.switch_cpus_1.rob.rob_writes         789622330                       # The number of ROB writes
system.switch_cpus_1.timesIdled               2762285                       # Number of times that the entire CPU went into an idle state and unscheduled itself
system.tol2bus.pkt_count_system.cpu.icache.mem_side::system.l2.cpu_side     24302676                       # Packet count per connected master and slave (bytes)
system.tol2bus.pkt_count_system.cpu.dcache.mem_side::system.l2.cpu_side      2164273                       # Packet count per connected master and slave (bytes)
system.tol2bus.pkt_count::total              26466949                       # Packet count per connected master and slave (bytes)
system.tol2bus.pkt_size_system.cpu.icache.mem_side::system.l2.cpu_side   1036855936                       # Cumulative packet size per connected master and slave (bytes)
system.tol2bus.pkt_size_system.cpu.dcache.mem_side::system.l2.cpu_side     75561600                       # Cumulative packet size per connected master and slave (bytes)
system.tol2bus.pkt_size::total             1112417536                       # Cumulative packet size per connected master and slave (bytes)
system.tol2bus.pwrStateResidencyTicks::UNDEFINED 391786637000                       # Cumulative time (in ticks) in various power states
system.tol2bus.reqLayer0.occupancy        34765640996                       # Layer occupancy (ticks)
system.tol2bus.reqLayer0.utilization              8.9                       # Layer utilization (%)
system.tol2bus.respLayer0.occupancy       24306968436                       # Layer occupancy (ticks)
system.tol2bus.respLayer0.utilization             6.2                       # Layer utilization (%)
system.tol2bus.respLayer1.occupancy        2166663127                       # Layer occupancy (ticks)
system.tol2bus.respLayer1.utilization             0.6                       # Layer utilization (%)
system.tol2bus.snoopTraffic                  12794240                       # Total snoop traffic (bytes)
system.tol2bus.snoop_fanout::samples          9597153                       # Request fanout histogram
system.tol2bus.snoop_fanout::mean            0.017621                       # Request fanout histogram
system.tol2bus.snoop_fanout::stdev           0.132215                       # Request fanout histogram
system.tol2bus.snoop_fanout::underflows             0      0.00%      0.00% # Request fanout histogram
system.tol2bus.snoop_fanout::0                9428858     98.25%     98.25% # Request fanout histogram
system.tol2bus.snoop_fanout::1                 167478      1.75%     99.99% # Request fanout histogram
system.tol2bus.snoop_fanout::2                    817      0.01%    100.00% # Request fanout histogram
system.tol2bus.snoop_fanout::3                      0      0.00%    100.00% # Request fanout histogram
system.tol2bus.snoop_fanout::4                      0      0.00%    100.00% # Request fanout histogram
system.tol2bus.snoop_fanout::overflows              0      0.00%    100.00% # Request fanout histogram
system.tol2bus.snoop_fanout::min_value              0                       # Request fanout histogram
system.tol2bus.snoop_fanout::max_value              2                       # Request fanout histogram
system.tol2bus.snoop_fanout::total            9597153                       # Request fanout histogram
system.tol2bus.snoop_filter.hit_multi_requests        25660                       # Number of requests hitting in the snoop filter with multiple (>1) holders of the requested data.
system.tol2bus.snoop_filter.hit_multi_snoops          817                       # Number of snoops hitting in the snoop filter with multiple (>1) holders of the requested data.
system.tol2bus.snoop_filter.hit_single_requests      8821096                       # Number of requests hitting in the snoop filter with a single holder of the requested data.
system.tol2bus.snoop_filter.hit_single_snoops       141803                       # Number of snoops hitting in the snoop filter with a single holder of the requested data.
system.tol2bus.snoop_filter.tot_requests     17644493                       # Total number of requests made to the snoop filter.
system.tol2bus.snoop_filter.tot_snoops         142620                       # Total number of snoops made to the snoop filter.
system.tol2bus.snoops                          774697                       # Total snoops (count)
system.tol2bus.trans_dist::ReadResp           8622716                       # Transaction distribution
system.tol2bus.trans_dist::WritebackDirty       658184                       # Transaction distribution
system.tol2bus.trans_dist::WritebackClean      8100685                       # Transaction distribution
system.tol2bus.trans_dist::CleanEvict          834639                       # Transaction distribution
system.tol2bus.trans_dist::UpgradeReq            1504                       # Transaction distribution
system.tol2bus.trans_dist::UpgradeResp           1504                       # Transaction distribution
system.tol2bus.trans_dist::ReadExReq           199849                       # Transaction distribution
system.tol2bus.trans_dist::ReadExResp          199849                       # Transaction distribution
system.tol2bus.trans_dist::ReadCleanReq       8101802                       # Transaction distribution
system.tol2bus.trans_dist::ReadSharedReq       520914                       # Transaction distribution
system.voltage_domain.voltage                       1                       # Voltage in Volts

---------- End Simulation Statistics   ----------
