Running SPEC test: mcf

/home/victorfu/cpu2017/benchspec/CPU/505.mcf_r
gem5 Simulator System.  http://gem5.org
gem5 is copyrighted software; use the --copyright option for details.

gem5 compiled Jun 12 2019 22:55:31
gem5 started Jun 14 2019 10:01:01
gem5 executing on tetracosa.cs.ucla.edu, pid 87551
command line: /home/victorfu/finalproject/gem5/build/X86/gem5.opt --outdir=/home/victorfu/output/bench_spec/simple/mcf /home/victorfu/finalproject/gem5/configs/example/se.py --caches --l2cache --cmd=mcf_r_base.victor_jun10-m64 --l1i_size=16kB --l1d_size=64kB --l2_size=256kB --cpu-type=DerivO3CPU --mem-type=DDR3_1600_8x8 --cpu-clock=1GHz --maxinsts=100000000 --options=inp.in --l2-hwp-type=TaggedPrefetcher --mlu_pf_type=perceptron

info: Standard input is not a terminal, disabling listeners.
Warning: l2-hwp-type is set ( TaggedPrefetcher ), but the current l2 has a default Hardware Prefetcher of type <class 'm5.params.NullSimObject'> , using the specified by the flag option.
MLU-Prefetch Perceptron Enabled.
Global frequency set at 1000000000000 ticks per second
warn: DRAM device capacity (8192 Mbytes) does not match the address range assigned (512 Mbytes)
PerceptronUnit is in mode: PC_DELTA_ADDR
warn: Sockets disabled, not accepting gdb connections
**** REAL SIMULATION ****
info: Entering event queue @ 0.  Starting simulation...
new weight for 0 is: -1
new weight for 1 is: -136647033
new weight for 2 is: 136647153
new weight for 0 is: -2
new weight for 1 is: -136647053
new weight for 2 is: 136647173
info: Increasing stack size by one page.
info: Increasing stack size by one page.
warn: ignoring syscall access(...)
warn: ignoring syscall mprotect(...)
warn: ignoring syscall mprotect(...)
warn: ignoring syscall mprotect(...)
warn: ignoring syscall mprotect(...)
warn: ignoring syscall mprotect(...)
warn: ignoring syscall mprotect(...)

MCF SPEC CPU version 1.11
Copyright (c) 1998-2000 Zuse Institut Berlin (ZIB)
Copyright (c) 2000-2002 Andreas Loebel & ZIB
Copyright (c) 2003-2005 Andreas Loebel
Copyright (c) 2006-2010 Dres. Loebel, Borndoerfer & Weider GbR (LBW)

new weight for 0 is: -3
new weight for 1 is: 4194282
new weight for 2 is: -4194154
new weight for 0 is: -4
new weight for 1 is: 4194322
new weight for 2 is: -4194194
new weight for 0 is: -5
new weight for 1 is: -136406723
new weight for 2 is: 136406806
new weight for 0 is: -6
new weight for 1 is: -136406763
new weight for 2 is: 136406846
new weight for 0 is: -7
new weight for 1 is: 4194300
new weight for 2 is: -4194172
new weight for 0 is: -8
new weight for 1 is: 4194340
new weight for 2 is: -4194212
new weight for 0 is: -9
new weight for 1 is: -147107821
new weight for 2 is: 147107949
new weight for 0 is: -10
new weight for 1 is: -147107861
new weight for 2 is: 147107989
new weight for 0 is: -11
new weight for 1 is: 4159083
new weight for 2 is: -4158955
new weight for 0 is: -12
new weight for 1 is: 4159123
new weight for 2 is: -4158995
new weight for 0 is: -13
new weight for 1 is: -147107820
new weight for 2 is: 147107948
new weight for 0 is: -14
new weight for 1 is: -147107860
new weight for 2 is: 147107988
new weight for 0 is: -15
new weight for 1 is: 4194280
new weight for 2 is: -4194152
new weight for 0 is: -16
new weight for 1 is: 4194320
new weight for 2 is: -4194192
new weight for 0 is: -17
new weight for 1 is: 4194320
new weight for 2 is: -4194192
new weight for 0 is: -18
new weight for 1 is: 4194320
new weight for 2 is: -4194192
new weight for 0 is: -19
new weight for 1 is: 4194320
new weight for 2 is: -4194192
new weight for 0 is: -20
new weight for 1 is: 4194320
new weight for 2 is: -4194192
new weight for 0 is: -21
new weight for 1 is: -147107796
new weight for 2 is: 147107924
new weight for 0 is: -21
new weight for 1 is: 4194344
new weight for 2 is: -4194216
new weight for 0 is: -21
new weight for 1 is: 4194384
new weight for 2 is: -4194256
new weight for 0 is: -21
new weight for 1 is: 4194384
new weight for 2 is: -4194256
new weight for 0 is: -21
new weight for 1 is: 4194384
new weight for 2 is: -4194256
new weight for 0 is: -21
new weight for 1 is: 4194384
new weight for 2 is: -4194256
new weight for 0 is: -21
new weight for 1 is: 4194384
new weight for 2 is: -4194256
new weight for 0 is: -21
new weight for 1 is: -147107820
new weight for 2 is: 147107948
new weight for 0 is: -21
new weight for 1 is: -168754078
new weight for 2 is: 168754198
new weight for 0 is: -21
new weight for 1 is: -168754078
new weight for 2 is: 168754198
new weight for 0 is: -21
new weight for 1 is: -171317733
new weight for 2 is: 171317853
new weight for 0 is: -21
new weight for 1 is: -171317733
new weight for 2 is: 171317853
new weight for 0 is: -21
new weight for 1 is: -171317733
new weight for 2 is: 171317853
new weight for 0 is: -21
new weight for 1 is: -171317670
new weight for 2 is: 171317766
new weight for 0 is: -21
new weight for 1 is: -171317670
new weight for 2 is: 171317766
new weight for 0 is: -21
new weight for 1 is: -171317670
new weight for 2 is: 171317766
new weight for 0 is: -21
new weight for 1 is: -171317670
new weight for 2 is: 171317766
new weight for 0 is: -21
new weight for 1 is: -173023229
new weight for 2 is: 173023357
new weight for 0 is: -21
new weight for 1 is: -173023229
new weight for 2 is: 173023357
new weight for 0 is: -21
new weight for 1 is: -173023229
new weight for 2 is: 173023357
new weight for 0 is: -21
new weight for 1 is: -173023229
new weight for 2 is: 173023357
new weight for 0 is: -21
new weight for 1 is: -173023229
new weight for 2 is: 173023357
new weight for 0 is: -21
new weight for 1 is: -173023229
new weight for 2 is: 173023357
new weight for 0 is: -21
new weight for 1 is: -176441213
new weight for 2 is: 176441341
new weight for 0 is: -21
new weight for 1 is: -176441213
new weight for 2 is: 176441341
new weight for 0 is: -21
new weight for 1 is: -176441213
new weight for 2 is: 176441341
new weight for 0 is: -21
new weight for 1 is: -176441213
new weight for 2 is: 176441341
new weight for 0 is: -21
new weight for 1 is: -176441213
new weight for 2 is: 176441341
new weight for 0 is: -21
new weight for 1 is: -176441213
new weight for 2 is: 176441341
new weight for 0 is: -21
new weight for 1 is: -179004702
new weight for 2 is: 179004814
new weight for 0 is: -21
new weight for 1 is: -179004702
new weight for 2 is: 179004814
new weight for 0 is: -21
new weight for 1 is: -179004702
new weight for 2 is: 179004814
new weight for 0 is: -21
new weight for 1 is: -179004702
new weight for 2 is: 179004814
new weight for 0 is: -21
new weight for 1 is: -179004702
new weight for 2 is: 179004814
new weight for 0 is: -21
new weight for 1 is: -179004702
new weight for 2 is: 179004814
new weight for 0 is: -21
new weight for 1 is: -168184293
new weight for 2 is: 168184413
new weight for 0 is: -21
new weight for 1 is: -168184230
new weight for 2 is: 168184326
new weight for 0 is: -21
new weight for 1 is: -168184230
new weight for 2 is: 168184326
new weight for 0 is: -21
new weight for 1 is: -168184230
new weight for 2 is: 168184326
new weight for 0 is: -21
new weight for 1 is: -168184230
new weight for 2 is: 168184326
new weight for 0 is: -21
new weight for 1 is: -169039005
new weight for 2 is: 169039133
new weight for 0 is: -21
new weight for 1 is: -169038820
new weight for 2 is: 169038932
new weight for 0 is: -21
new weight for 1 is: -169038820
new weight for 2 is: 169038932
new weight for 0 is: -21
new weight for 1 is: -169038820
new weight for 2 is: 169038932
new weight for 0 is: -21
new weight for 1 is: -169038820
new weight for 2 is: 169038932
new weight for 0 is: -21
new weight for 1 is: -171602772
new weight for 2 is: 171602852
new weight for 0 is: -21
new weight for 1 is: -171602772
new weight for 2 is: 171602852
new weight for 0 is: -21
new weight for 1 is: -171602772
new weight for 2 is: 171602852
new weight for 0 is: -21
new weight for 1 is: -171602772
new weight for 2 is: 171602852
new weight for 0 is: -21
new weight for 1 is: -171602772
new weight for 2 is: 171602852
new weight for 0 is: -21
new weight for 1 is: -171602772
new weight for 2 is: 171602852
new weight for 0 is: -21
new weight for 1 is: -172457133
new weight for 2 is: 172457245
new weight for 0 is: -21
new weight for 1 is: -172457070
new weight for 2 is: 172457158
new weight for 0 is: -21
new weight for 1 is: -172457070
new weight for 2 is: 172457158
new weight for 0 is: -21
new weight for 1 is: -172457070
new weight for 2 is: 172457158
new weight for 0 is: -21
new weight for 1 is: -172457070
new weight for 2 is: 172457158
new weight for 0 is: -21
new weight for 1 is: -175875054
new weight for 2 is: 175875142
new weight for 0 is: -21
new weight for 1 is: -175875054
new weight for 2 is: 175875142
new weight for 0 is: -21
new weight for 1 is: -175875054
new weight for 2 is: 175875142
new weight for 0 is: -21
new weight for 1 is: -175875054
new weight for 2 is: 175875142
new weight for 0 is: -21
new weight for 1 is: -176729613
new weight for 2 is: 176729693
new weight for 0 is: -21
new weight for 1 is: -176729613
new weight for 2 is: 176729693
new weight for 0 is: -21
new weight for 1 is: -176729613
new weight for 2 is: 176729693
new weight for 0 is: -21
new weight for 1 is: -176729500
new weight for 2 is: 176729572
new weight for 0 is: -21
new weight for 1 is: -176729500
new weight for 2 is: 176729572
new weight for 0 is: -21
new weight for 1 is: -176729500
new weight for 2 is: 176729572
new weight for 0 is: -21
new weight for 1 is: -176729500
new weight for 2 is: 176729572
new weight for 0 is: -21
new weight for 1 is: -168469269
new weight for 2 is: 168469341
new weight for 0 is: -21
new weight for 1 is: -169323981
new weight for 2 is: 169324061
new weight for 0 is: -21
new weight for 1 is: -169323981
new weight for 2 is: 169324061
new weight for 0 is: -21
new weight for 1 is: -169323868
new weight for 2 is: 169323940
new weight for 0 is: -21
new weight for 1 is: -169323868
new weight for 2 is: 169323940
new weight for 0 is: -21
new weight for 1 is: -169323868
new weight for 2 is: 169323940
new weight for 0 is: -21
new weight for 1 is: -169323868
new weight for 2 is: 169323940
new weight for 0 is: -21
new weight for 1 is: -169323868
new weight for 2 is: 169323940
new weight for 0 is: -21
new weight for 1 is: -170178486
new weight for 2 is: 170178566
new weight for 0 is: -21
new weight for 1 is: -170178486
new weight for 2 is: 170178566
new weight for 0 is: -21
new weight for 1 is: -170178486
new weight for 2 is: 170178566
new weight for 0 is: -21
new weight for 1 is: -170178486
new weight for 2 is: 170178566
new weight for 0 is: -21
new weight for 1 is: -173593038
new weight for 2 is: 173593166
new weight for 0 is: -21
new weight for 1 is: -173593038
new weight for 2 is: 173593166
new weight for 0 is: -21
new weight for 1 is: -173593038
new weight for 2 is: 173593166
new weight for 0 is: -21
new weight for 1 is: -173593038
new weight for 2 is: 173593166
new weight for 0 is: -21
new weight for 1 is: -173593038
new weight for 2 is: 173593166
new weight for 0 is: -21
new weight for 1 is: -173593038
new weight for 2 is: 173593166
new weight for 0 is: -21
new weight for 1 is: -174451029
new weight for 2 is: 174451101
new weight for 0 is: -21
new weight for 1 is: -174451029
new weight for 2 is: 174451101
new weight for 0 is: -21
new weight for 1 is: -174450844
new weight for 2 is: 174450964
new weight for 0 is: -21
new weight for 1 is: -174450844
new weight for 2 is: 174450964
new weight for 0 is: -21
new weight for 1 is: -174450844
new weight for 2 is: 174450964
new weight for 0 is: -21
new weight for 1 is: -174450844
new weight for 2 is: 174450964
new weight for 0 is: -21
new weight for 1 is: -175302030
new weight for 2 is: 175302158
new weight for 0 is: -21
new weight for 1 is: -175302030
new weight for 2 is: 175302158
new weight for 0 is: -21
new weight for 1 is: -175302030
new weight for 2 is: 175302158
new weight for 0 is: -21
new weight for 1 is: -175302030
new weight for 2 is: 175302158
new weight for 0 is: -21
new weight for 1 is: -175302030
new weight for 2 is: 175302158
new weight for 0 is: -21
new weight for 1 is: -175302030
new weight for 2 is: 175302158
new weight for 0 is: -21
new weight for 1 is: -176160070
new weight for 2 is: 176160150
new weight for 0 is: -21
new weight for 1 is: -176160070
new weight for 2 is: 176160150
new weight for 0 is: -21
new weight for 1 is: -169608772
new weight for 2 is: 169608852
new weight for 0 is: -21
new weight for 1 is: -169608772
new weight for 2 is: 169608852
new weight for 0 is: -21
new weight for 1 is: -169608772
new weight for 2 is: 169608852
new weight for 0 is: -21
new weight for 1 is: -169608772
new weight for 2 is: 169608852
new weight for 0 is: -21
new weight for 1 is: -169608772
new weight for 2 is: 169608852
new weight for 0 is: -21
new weight for 1 is: -169608772
new weight for 2 is: 169608852
new weight for 0 is: -21
new weight for 1 is: -169608772
new weight for 2 is: 169608852
new weight for 0 is: -21
new weight for 1 is: -169608772
new weight for 2 is: 169608852
new weight for 0 is: -21
new weight for 1 is: -169608772
new weight for 2 is: 169608852
new weight for 0 is: -21
new weight for 1 is: -172168950
new weight for 2 is: 172169038
new weight for 0 is: -21
new weight for 1 is: -172168950
new weight for 2 is: 172169038
new weight for 0 is: -21
new weight for 1 is: -169893910
new weight for 2 is: 169894038
new weight for 0 is: -21
new weight for 1 is: -169893798
new weight for 2 is: 169893894
new weight for 0 is: -21
new weight for 1 is: -169893798
new weight for 2 is: 169893894
new weight for 0 is: -21
new weight for 1 is: -169893798
new weight for 2 is: 169893894
new weight for 0 is: -21
new weight for 1 is: -169893798
new weight for 2 is: 169893894
new weight for 0 is: -21
new weight for 1 is: -178438821
new weight for 2 is: 178438941
new weight for 0 is: -21
new weight for 1 is: -178438821
new weight for 2 is: 178438941
new weight for 0 is: -21
new weight for 1 is: -178435325
new weight for 2 is: 178435453
new weight for 0 is: -21
new weight for 1 is: -178435325
new weight for 2 is: 178435453
new weight for 0 is: -21
new weight for 1 is: -178435325
new weight for 2 is: 178435453
new weight for 0 is: -21
new weight for 1 is: -178435325
new weight for 2 is: 178435453
new weight for 0 is: -21
new weight for 1 is: -172742253
new weight for 2 is: 172742365
new weight for 0 is: -21
new weight for 1 is: -172742302
new weight for 2 is: 172742422
new weight for 0 is: -21
new weight for 1 is: -169609222
new weight for 2 is: 169609302
new weight for 0 is: -21
new weight for 1 is: -169609222
new weight for 2 is: 169609302
new weight for 0 is: -21
new weight for 1 is: -178154182
new weight for 2 is: 178154262
new weight for 0 is: -21
new weight for 1 is: -178154182
new weight for 2 is: 178154262
new weight for 0 is: -21
new weight for 1 is: -170748510
new weight for 2 is: 170748614
new weight for 0 is: -21
new weight for 1 is: -170748510
new weight for 2 is: 170748614
new weight for 0 is: -21
new weight for 1 is: -175875486
new weight for 2 is: 175875590
new weight for 0 is: -21
new weight for 1 is: -175875486
new weight for 2 is: 175875590
new weight for 0 is: -21
new weight for 1 is: 4159540
new weight for 2 is: -4159420
new weight for 0 is: -21
new weight for 1 is: 4159580
new weight for 2 is: -4159460
new weight for 0 is: -21
new weight for 1 is: -5558958
new weight for 2 is: 5559030
new weight for 0 is: -21
new weight for 1 is: -5558998
new weight for 2 is: 5559070
new weight for 0 is: -21
new weight for 1 is: -26407172
new weight for 2 is: 26407276
new weight for 0 is: -21
new weight for 1 is: -26407172
new weight for 2 is: 26407276
new weight for 0 is: -21
new weight for 1 is: -26407172
new weight for 2 is: 26407276
new weight for 0 is: -21
new weight for 1 is: -26407172
new weight for 2 is: 26407276
new weight for 0 is: -21
new weight for 1 is: -179581046
new weight for 2 is: 179581126
new weight for 0 is: -21
new weight for 1 is: -179581046
new weight for 2 is: 179581126
new weight for 0 is: -21
new weight for 1 is: -179581046
new weight for 2 is: 179581126
new weight for 0 is: -21
new weight for 1 is: -179581046
new weight for 2 is: 179581126
new weight for 0 is: -21
new weight for 1 is: -179581046
new weight for 2 is: 179581126
new weight for 0 is: -21
new weight for 1 is: -179581046
new weight for 2 is: 179581126
info: Increasing stack size by one page.
new weight for 0 is: -21
new weight for 1 is: -179227789
new weight for 2 is: 179227877
new weight for 0 is: -21
new weight for 1 is: -179227789
new weight for 2 is: 179227877
new weight for 0 is: -21
new weight for 1 is: -179227789
new weight for 2 is: 179227877
new weight for 0 is: -21
new weight for 1 is: -169543573
new weight for 2 is: 169543653
new weight for 0 is: -21
new weight for 1 is: -169543573
new weight for 2 is: 169543653
new weight for 0 is: -21
new weight for 1 is: -169543573
new weight for 2 is: 169543653
new weight for 0 is: -21
new weight for 1 is: -170398069
new weight for 2 is: 170398181
new weight for 0 is: -21
new weight for 1 is: -170398069
new weight for 2 is: 170398181
new weight for 0 is: -21
new weight for 1 is: -175240213
new weight for 2 is: 175240293
new weight for 0 is: -21
new weight for 1 is: -175810093
new weight for 2 is: 175810213
new weight for 0 is: -21
new weight for 1 is: -178658485
new weight for 2 is: 178658597
new weight for 0 is: -21
new weight for 1 is: -178658485
new weight for 2 is: 178658597
new weight for 0 is: -21
new weight for 1 is: -179228149
new weight for 2 is: 179228261
new weight for 0 is: -21
new weight for 1 is: -179228149
new weight for 2 is: 179228261
new weight for 0 is: -21
new weight for 1 is: -171538045
new weight for 2 is: 171538149
new weight for 0 is: -21
new weight for 1 is: -171538045
new weight for 2 is: 171538149
new weight for 0 is: -21
new weight for 1 is: -169544365
new weight for 2 is: 169544485
new weight for 0 is: -21
new weight for 1 is: -169544365
new weight for 2 is: 169544485
new weight for 0 is: -21
new weight for 1 is: -170399149
new weight for 2 is: 170399269
new weight for 0 is: -21
new weight for 1 is: -170399149
new weight for 2 is: 170399269
new weight for 0 is: -21
new weight for 1 is: -178659565
new weight for 2 is: 178659685
new weight for 0 is: -21
new weight for 1 is: -178659565
new weight for 2 is: 178659685
new weight for 0 is: -21
new weight for 1 is: -178659565
new weight for 2 is: 178659685
new weight for 0 is: -21
new weight for 1 is: -167835661
new weight for 2 is: 167835749
new weight for 0 is: -21
new weight for 1 is: -167835661
new weight for 2 is: 167835749
new weight for 0 is: -21
new weight for 1 is: -175811461
new weight for 2 is: 175811557
new weight for 0 is: -21
new weight for 1 is: -175811461
new weight for 2 is: 175811557
new weight for 0 is: -21
new weight for 1 is: -168121213
new weight for 2 is: 168121317
new weight for 0 is: -21
new weight for 1 is: -168121213
new weight for 2 is: 168121317
new weight for 0 is: -21
new weight for 1 is: -170115397
new weight for 2 is: 170115493
new weight for 0 is: -21
new weight for 1 is: -170115397
new weight for 2 is: 170115493
new weight for 0 is: -21
new weight for 1 is: -170685133
new weight for 2 is: 170685221
new weight for 0 is: -21
new weight for 1 is: -170685133
new weight for 2 is: 170685221
new weight for 0 is: -21
new weight for 1 is: -175812109
new weight for 2 is: 175812197
new weight for 0 is: -21
new weight for 1 is: -175812109
new weight for 2 is: 175812197
new weight for 0 is: -21
new weight for 1 is: -167836453
new weight for 2 is: 167836581
new weight for 0 is: -21
new weight for 1 is: -167836453
new weight for 2 is: 167836581
new weight for 0 is: -21
new weight for 1 is: -169830853
new weight for 2 is: 169830949
new weight for 0 is: -21
new weight for 1 is: -169830853
new weight for 2 is: 169830949
new weight for 0 is: -21
new weight for 1 is: -176097517
new weight for 2 is: 176097637
new weight for 0 is: -21
new weight for 1 is: -176097517
new weight for 2 is: 176097637
new weight for 0 is: -21
new weight for 1 is: -178091413
new weight for 2 is: 178091493
new weight for 0 is: -21
new weight for 1 is: -178091413
new weight for 2 is: 178091493
new weight for 0 is: -21
new weight for 1 is: -169261621
new weight for 2 is: 169261733
new weight for 0 is: -21
new weight for 1 is: -169261621
new weight for 2 is: 169261733
new weight for 0 is: -21
new weight for 1 is: -173249773
new weight for 2 is: 173249893
new weight for 0 is: -21
new weight for 1 is: -173249773
new weight for 2 is: 173249893
new weight for 0 is: -21
new weight for 1 is: -173250061
new weight for 2 is: 173250149
new weight for 0 is: -21
new weight for 1 is: -167754085
new weight for 2 is: 167754213
new weight for 0 is: -21
new weight for 1 is: -167754085
new weight for 2 is: 167754213
new weight for 0 is: -21
new weight for 1 is: -174390325
new weight for 2 is: 174390437
new weight for 0 is: -21
new weight for 1 is: -174390325
new weight for 2 is: 174390437
new weight for 0 is: -21
new weight for 1 is: -174959989
new weight for 2 is: 174960101
new weight for 0 is: -21
new weight for 1 is: -174959989
new weight for 2 is: 174960101
new weight for 0 is: -21
new weight for 1 is: -174959989
new weight for 2 is: 174960101
new weight for 0 is: -21
new weight for 1 is: -172111741
new weight for 2 is: 172111845
new weight for 0 is: -21
new weight for 1 is: -172111741
new weight for 2 is: 172111845
new weight for 0 is: -21
new weight for 1 is: -178947709
new weight for 2 is: 178947813
new weight for 0 is: -21
new weight for 1 is: -178947709
new weight for 2 is: 178947813
new weight for 0 is: -21
new weight for 1 is: -167838901
new weight for 2 is: 167839013
new weight for 0 is: -21
new weight for 1 is: -167838901
new weight for 2 is: 167839013
new weight for 0 is: -21
new weight for 1 is: -167838901
new weight for 2 is: 167839013
new weight for 0 is: -21
new weight for 1 is: -170972485
new weight for 2 is: 170972581
new weight for 0 is: -21
new weight for 1 is: -170972485
new weight for 2 is: 170972581
new weight for 0 is: -21
new weight for 1 is: -170972485
new weight for 2 is: 170972581
new weight for 0 is: -21
new weight for 1 is: -171542149
new weight for 2 is: 171542245
new weight for 0 is: -21
new weight for 1 is: -171826981
new weight for 2 is: 171827109
new weight for 0 is: -21
new weight for 1 is: -171826981
new weight for 2 is: 171827109
new weight for 0 is: -21
new weight for 1 is: -177238789
new weight for 2 is: 177238885
new weight for 0 is: -21
new weight for 1 is: -177238789
new weight for 2 is: 177238885
new weight for 0 is: -21
new weight for 1 is: -177238789
new weight for 2 is: 177238885
new weight for 0 is: -21
new weight for 1 is: -177523621
new weight for 2 is: 177523749
new weight for 0 is: -21
new weight for 1 is: -177808453
new weight for 2 is: 177808549
new weight for 0 is: -21
new weight for 1 is: -177808453
new weight for 2 is: 177808549
new weight for 0 is: -21
new weight for 1 is: -178093285
new weight for 2 is: 178093413
new weight for 0 is: -21
new weight for 1 is: -178093285
new weight for 2 is: 178093413
new weight for 0 is: -21
new weight for 1 is: -179232613
new weight for 2 is: 179232741
new weight for 0 is: -21
new weight for 1 is: -179232613
new weight for 2 is: 179232741
new weight for 0 is: -21
new weight for 1 is: -176099533
new weight for 2 is: 176099621
new weight for 0 is: -21
new weight for 1 is: -176099533
new weight for 2 is: 176099621
new weight for 0 is: -21
new weight for 1 is: -176099533
new weight for 2 is: 176099621
new weight for 0 is: -21
new weight for 1 is: -175529941
new weight for 2 is: 175530021
new weight for 0 is: -21
new weight for 1 is: -175529941
new weight for 2 is: 175530021
new weight for 0 is: -21
new weight for 1 is: -178947925
new weight for 2 is: 178948005
new weight for 0 is: -21
new weight for 1 is: -178947925
new weight for 2 is: 178948005
new weight for 0 is: -21
new weight for 1 is: -175245181
new weight for 2 is: 175245285
new weight for 0 is: -21
new weight for 1 is: -175245181
new weight for 2 is: 175245285
new weight for 0 is: -21
new weight for 1 is: -177523837
new weight for 2 is: 177523941
new weight for 0 is: -21
new weight for 1 is: -177523837
new weight for 2 is: 177523941
new weight for 0 is: -21
new weight for 1 is: -179232829
new weight for 2 is: 179232933
new weight for 0 is: -21
new weight for 1 is: -179232829
new weight for 2 is: 179232933
new weight for 0 is: -21
new weight for 1 is: -172681765
new weight for 2 is: 172681893
new weight for 0 is: -21
new weight for 1 is: -172681765
new weight for 2 is: 172681893
new weight for 0 is: -21
new weight for 1 is: -175814917
new weight for 2 is: 175815013
new weight for 0 is: -21
new weight for 1 is: -175814917
new weight for 2 is: 175815013
new weight for 0 is: -21
new weight for 1 is: -176669413
new weight for 2 is: 176669541
new weight for 0 is: -21
new weight for 1 is: -176669413
new weight for 2 is: 176669541
new weight for 0 is: -21
new weight for 1 is: -177239077
new weight for 2 is: 177239205
new weight for 0 is: -21
new weight for 1 is: -177239077
new weight for 2 is: 177239205
new weight for 0 is: -21
new weight for 1 is: -169833589
new weight for 2 is: 169833701
new weight for 0 is: -21
new weight for 1 is: -169833589
new weight for 2 is: 169833701
new weight for 0 is: -21
new weight for 1 is: -169833589
new weight for 2 is: 169833701
new weight for 0 is: -21
new weight for 1 is: -169833589
new weight for 2 is: 169833701
new weight for 0 is: -21
new weight for 1 is: -169833589
new weight for 2 is: 169833701
new weight for 0 is: -21
new weight for 1 is: -170403253
new weight for 2 is: 170403365
new weight for 0 is: -21
new weight for 1 is: -170403253
new weight for 2 is: 170403365
new weight for 0 is: -21
new weight for 1 is: -170403253
new weight for 2 is: 170403365
new weight for 0 is: -21
new weight for 1 is: -170688085
new weight for 2 is: 170688165
new weight for 0 is: -21
new weight for 1 is: -170688085
new weight for 2 is: 170688165
new weight for 0 is: -21
new weight for 1 is: -172112245
new weight for 2 is: 172112357
new weight for 0 is: -21
new weight for 1 is: -172112245
new weight for 2 is: 172112357
new weight for 0 is: -21
new weight for 1 is: -173251573
new weight for 2 is: 173251685
new weight for 0 is: -21
new weight for 1 is: -173251573
new weight for 2 is: 173251685
new weight for 0 is: -21
new weight for 1 is: -174675733
new weight for 2 is: 174675813
new weight for 0 is: -21
new weight for 1 is: -174675733
new weight for 2 is: 174675813
new weight for 0 is: -21
new weight for 1 is: -174675733
new weight for 2 is: 174675813
new weight for 0 is: -21
new weight for 1 is: -174675733
new weight for 2 is: 174675813
new weight for 0 is: -21
new weight for 1 is: -175245397
new weight for 2 is: 175245477
new weight for 0 is: -21
new weight for 1 is: -175245397
new weight for 2 is: 175245477
new weight for 0 is: -21
new weight for 1 is: -167839405
new weight for 2 is: 167839525
new weight for 0 is: -21
new weight for 1 is: -167839405
new weight for 2 is: 167839525
new weight for 0 is: -21
new weight for 1 is: -167839405
new weight for 2 is: 167839525
new weight for 0 is: -21
new weight for 1 is: -168124309
new weight for 2 is: 168124389
new weight for 0 is: -21
new weight for 1 is: -177239293
new weight for 2 is: 177239397
new weight for 0 is: -21
new weight for 1 is: -177239293
new weight for 2 is: 177239397
new weight for 0 is: -21
new weight for 1 is: -171257893
new weight for 2 is: 171258021
new weight for 0 is: -21
new weight for 1 is: -171257893
new weight for 2 is: 171258021
new weight for 0 is: -21
new weight for 1 is: -171827557
new weight for 2 is: 171827685
new weight for 0 is: -21
new weight for 1 is: -171827557
new weight for 2 is: 171827685
new weight for 0 is: -21
new weight for 1 is: -173536549
new weight for 2 is: 173536677
new weight for 0 is: -21
new weight for 1 is: -173536549
new weight for 2 is: 173536677
new weight for 0 is: -21
new weight for 1 is: -173536549
new weight for 2 is: 173536677
new weight for 0 is: -21
new weight for 1 is: -174675877
new weight for 2 is: 174676005
new weight for 0 is: -21
new weight for 1 is: -174675877
new weight for 2 is: 174676005
new weight for 0 is: -21
new weight for 1 is: -177524269
new weight for 2 is: 177524389
new weight for 0 is: -21
new weight for 1 is: -177524269
new weight for 2 is: 177524389
new weight for 0 is: -21
new weight for 1 is: -178093933
new weight for 2 is: 178094053
new weight for 0 is: -21
new weight for 1 is: -178378765
new weight for 2 is: 178378853
new weight for 0 is: -21
new weight for 1 is: -179233261
new weight for 2 is: 179233381
new weight for 0 is: -21
new weight for 1 is: -179233261
new weight for 2 is: 179233381
new weight for 0 is: -21
new weight for 1 is: -179233261
new weight for 2 is: 179233381
new weight for 0 is: -21
new weight for 1 is: -179233261
new weight for 2 is: 179233381
new weight for 0 is: -21
new weight for 1 is: -179233261
new weight for 2 is: 179233381
new weight for 0 is: -21
new weight for 1 is: -167839693
new weight for 2 is: 167839781
new weight for 0 is: -21
new weight for 1 is: -167839693
new weight for 2 is: 167839781
new weight for 0 is: -21
new weight for 1 is: -169264213
new weight for 2 is: 169264293
new weight for 0 is: -21
new weight for 1 is: -169264213
new weight for 2 is: 169264293
new weight for 0 is: -21
new weight for 1 is: -174961213
new weight for 2 is: 174961317
new weight for 0 is: -21
new weight for 1 is: -174961213
new weight for 2 is: 174961317
new weight for 0 is: -21
new weight for 1 is: -175530877
new weight for 2 is: 175530981
new weight for 0 is: -21
new weight for 1 is: -175530877
new weight for 2 is: 175530981
new weight for 0 is: -21
new weight for 1 is: -175530877
new weight for 2 is: 175530981
new weight for 0 is: -21
new weight for 1 is: -176100541
new weight for 2 is: 176100645
new weight for 0 is: -21
new weight for 1 is: -176100541
new weight for 2 is: 176100645
new weight for 0 is: -21
new weight for 1 is: -177809533
new weight for 2 is: 177809637
new weight for 0 is: -21
new weight for 1 is: -177809533
new weight for 2 is: 177809637
new weight for 0 is: -21
new weight for 1 is: -173537125
new weight for 2 is: 173537253
new weight for 0 is: -21
new weight for 1 is: -173537125
new weight for 2 is: 173537253
new weight for 0 is: -21
new weight for 1 is: -175815781
new weight for 2 is: 175815909
new weight for 0 is: -21
new weight for 1 is: -175815781
new weight for 2 is: 175815909
new weight for 0 is: -21
new weight for 1 is: -176955109
new weight for 2 is: 176955237
new weight for 0 is: -21
new weight for 1 is: -176955109
new weight for 2 is: 176955237
new weight for 0 is: -21
new weight for 1 is: -176955109
new weight for 2 is: 176955237
new weight for 0 is: -21
new weight for 1 is: -176955109
new weight for 2 is: 176955237
new weight for 0 is: -21
new weight for 1 is: -176955109
new weight for 2 is: 176955237
new weight for 0 is: -21
new weight for 1 is: -169834381
new weight for 2 is: 169834469
new weight for 0 is: -21
new weight for 1 is: -170119213
new weight for 2 is: 170119333
new weight for 0 is: -21
new weight for 1 is: -170119213
new weight for 2 is: 170119333
new weight for 0 is: -21
new weight for 1 is: -170404045
new weight for 2 is: 170404133
new weight for 0 is: -21
new weight for 1 is: -170404045
new weight for 2 is: 170404133
new weight for 0 is: -21
new weight for 1 is: -171258541
new weight for 2 is: 171258661
new weight for 0 is: -21
new weight for 1 is: -171258541
new weight for 2 is: 171258661
new weight for 0 is: -21
new weight for 1 is: -177524845
new weight for 2 is: 177524965
new weight for 0 is: -21
new weight for 1 is: -177524845
new weight for 2 is: 177524965
new weight for 0 is: -21
new weight for 1 is: -177524845
new weight for 2 is: 177524965
new weight for 0 is: -21
new weight for 1 is: -177524845
new weight for 2 is: 177524965
new weight for 0 is: -21
new weight for 1 is: -179233837
new weight for 2 is: 179233957
new weight for 0 is: -21
new weight for 1 is: -174961429
new weight for 2 is: 174961509
new weight for 0 is: -21
new weight for 1 is: -174961429
new weight for 2 is: 174961509
new weight for 0 is: -21
new weight for 1 is: -176100757
new weight for 2 is: 176100837
new weight for 0 is: -21
new weight for 1 is: -176100757
new weight for 2 is: 176100837
new weight for 0 is: -21
new weight for 1 is: -178094797
new weight for 2 is: 178094885
new weight for 0 is: -21
new weight for 1 is: -178094797
new weight for 2 is: 178094885
new weight for 0 is: -21
new weight for 1 is: -178094797
new weight for 2 is: 178094885
new weight for 0 is: -21
new weight for 1 is: -178094797
new weight for 2 is: 178094885
new weight for 0 is: -21
new weight for 1 is: -178094797
new weight for 2 is: 178094885
new weight for 0 is: -21
new weight for 1 is: -179234125
new weight for 2 is: 179234213
new weight for 0 is: -21
new weight for 1 is: -179234125
new weight for 2 is: 179234213
new weight for 0 is: -21
new weight for 1 is: -175246549
new weight for 2 is: 175246629
new weight for 0 is: -21
new weight for 1 is: -175246549
new weight for 2 is: 175246629
new weight for 0 is: -21
new weight for 1 is: -176101045
new weight for 2 is: 176101157
new weight for 0 is: -21
new weight for 1 is: -176101045
new weight for 2 is: 176101157
new weight for 0 is: -21
new weight for 1 is: -176101045
new weight for 2 is: 176101157
new weight for 0 is: -21
new weight for 1 is: -176385877
new weight for 2 is: 176385957
new weight for 0 is: -21
new weight for 1 is: -176385877
new weight for 2 is: 176385957
new weight for 0 is: -21
new weight for 1 is: -176670709
new weight for 2 is: 176670821
new weight for 0 is: -21
new weight for 1 is: -176670709
new weight for 2 is: 176670821
new weight for 0 is: -21
new weight for 1 is: -176955541
new weight for 2 is: 176955621
new weight for 0 is: -21
new weight for 1 is: -176955541
new weight for 2 is: 176955621
new weight for 0 is: -21
new weight for 1 is: -176955541
new weight for 2 is: 176955621
new weight for 0 is: -21
new weight for 1 is: -176955541
new weight for 2 is: 176955621
new weight for 0 is: -21
new weight for 1 is: -177240373
new weight for 2 is: 177240485
new weight for 0 is: -21
new weight for 1 is: -177240373
new weight for 2 is: 177240485
new weight for 0 is: -21
new weight for 1 is: -178664533
new weight for 2 is: 178664613
new weight for 0 is: -21
new weight for 1 is: -178664533
new weight for 2 is: 178664613
new weight for 0 is: -21
new weight for 1 is: -168125461
new weight for 2 is: 168125541
new weight for 0 is: -21
new weight for 1 is: -168125461
new weight for 2 is: 168125541
new weight for 0 is: -21
new weight for 1 is: -168125461
new weight for 2 is: 168125541
new weight for 0 is: -21
new weight for 1 is: -168125461
new weight for 2 is: 168125541
new weight for 0 is: -21
new weight for 1 is: -168980173
new weight for 2 is: 168980261
new weight for 0 is: -21
new weight for 1 is: -168980173
new weight for 2 is: 168980261
new weight for 0 is: -21
new weight for 1 is: -168980173
new weight for 2 is: 168980261
new weight for 0 is: -21
new weight for 1 is: -169265077
new weight for 2 is: 169265189
new weight for 0 is: -21
new weight for 1 is: -169265077
new weight for 2 is: 169265189
new weight for 0 is: -21
new weight for 1 is: -169265077
new weight for 2 is: 169265189
new weight for 0 is: -21
new weight for 1 is: -169265077
new weight for 2 is: 169265189
new weight for 0 is: -21
new weight for 1 is: -169834813
new weight for 2 is: 169834917
new weight for 0 is: -21
new weight for 1 is: -170974141
new weight for 2 is: 170974245
new weight for 0 is: -21
new weight for 1 is: -170974141
new weight for 2 is: 170974245
new weight for 0 is: -21
new weight for 1 is: -173252797
new weight for 2 is: 173252901
new weight for 0 is: -21
new weight for 1 is: -173252797
new weight for 2 is: 173252901
new weight for 0 is: -21
new weight for 1 is: -173252797
new weight for 2 is: 173252901
new weight for 0 is: -21
new weight for 1 is: -173537701
new weight for 2 is: 173537829
new weight for 0 is: -21
new weight for 1 is: -173537701
new weight for 2 is: 173537829
new weight for 0 is: -21
new weight for 1 is: -168125677
new weight for 2 is: 168125797
new weight for 0 is: -21
new weight for 1 is: -168125677
new weight for 2 is: 168125797
new weight for 0 is: -21
new weight for 1 is: -168125677
new weight for 2 is: 168125797
new weight for 0 is: -21
new weight for 1 is: -172683349
new weight for 2 is: 172683429
new weight for 0 is: -21
new weight for 1 is: -172683349
new weight for 2 is: 172683429
new weight for 0 is: -21
new weight for 1 is: -175246981
new weight for 2 is: 175247077
new weight for 0 is: -21
new weight for 1 is: -175246981
new weight for 2 is: 175247077
new weight for 0 is: -21
new weight for 1 is: -178949797
new weight for 2 is: 178949925
new weight for 0 is: -21
new weight for 1 is: -177525709
new weight for 2 is: 177525797
new weight for 0 is: -21
new weight for 1 is: -177525709
new weight for 2 is: 177525797
new weight for 0 is: -21
new weight for 1 is: -177525709
new weight for 2 is: 177525797
new weight for 0 is: -21
new weight for 1 is: -177525709
new weight for 2 is: 177525797
new weight for 0 is: -21
new weight for 1 is: -177525709
new weight for 2 is: 177525797
new weight for 0 is: -21
new weight for 1 is: -177810541
new weight for 2 is: 177810661
new weight for 0 is: -21
new weight for 1 is: -177810541
new weight for 2 is: 177810661
new weight for 0 is: -21
new weight for 1 is: -178095373
new weight for 2 is: 178095461
new weight for 0 is: -21
new weight for 1 is: -178095373
new weight for 2 is: 178095461
new weight for 0 is: -21
new weight for 1 is: -167841061
new weight for 2 is: 167841189
new weight for 0 is: -21
new weight for 1 is: -167841061
new weight for 2 is: 167841189
new weight for 0 is: -21
new weight for 1 is: -168125965
new weight for 2 is: 168126053
new weight for 0 is: -21
new weight for 1 is: -168125965
new weight for 2 is: 168126053
new weight for 0 is: -21
new weight for 1 is: -170404981
new weight for 2 is: 170405093
new weight for 0 is: -21
new weight for 1 is: -170404981
new weight for 2 is: 170405093
new weight for 0 is: -21
new weight for 1 is: -170689813
new weight for 2 is: 170689893
new weight for 0 is: -21
new weight for 1 is: -170689813
new weight for 2 is: 170689893
new weight for 0 is: -21
new weight for 1 is: -170690029
new weight for 2 is: 170690149
new weight for 0 is: -21
new weight for 1 is: -170690029
new weight for 2 is: 170690149
new weight for 0 is: -21
new weight for 1 is: -175247341
new weight for 2 is: 175247461
new weight for 0 is: -21
new weight for 1 is: -175532173
new weight for 2 is: 175532261
new weight for 0 is: -21
new weight for 1 is: -175532173
new weight for 2 is: 175532261
new weight for 0 is: -21
new weight for 1 is: -176386669
new weight for 2 is: 176386789
new weight for 0 is: -21
new weight for 1 is: -176386669
new weight for 2 is: 176386789
new weight for 0 is: -21
new weight for 1 is: -176386669
new weight for 2 is: 176386789
new weight for 0 is: -21
new weight for 1 is: -176386669
new weight for 2 is: 176386789
new weight for 0 is: -21
new weight for 1 is: -176386669
new weight for 2 is: 176386789
new weight for 0 is: -21
new weight for 1 is: -176956333
new weight for 2 is: 176956453
new weight for 0 is: -21
new weight for 1 is: -176956333
new weight for 2 is: 176956453
new weight for 0 is: -21
new weight for 1 is: -176956333
new weight for 2 is: 176956453
new weight for 0 is: -21
new weight for 1 is: -177810829
new weight for 2 is: 177810917
new weight for 0 is: -21
new weight for 1 is: -177810829
new weight for 2 is: 177810917
new weight for 0 is: -21
new weight for 1 is: -178095661
new weight for 2 is: 178095781
new weight for 0 is: -21
new weight for 1 is: -178095661
new weight for 2 is: 178095781
new weight for 0 is: -21
new weight for 1 is: -178380493
new weight for 2 is: 178380581
new weight for 0 is: -21
new weight for 1 is: -178380493
new weight for 2 is: 178380581
new weight for 0 is: -21
new weight for 1 is: -168126253
new weight for 2 is: 168126373
new weight for 0 is: -21
new weight for 1 is: -168126253
new weight for 2 is: 168126373
new weight for 0 is: -21
new weight for 1 is: -168126253
new weight for 2 is: 168126373
new weight for 0 is: -21
new weight for 1 is: -168696061
new weight for 2 is: 168696165
new weight for 0 is: -21
new weight for 1 is: -168980965
new weight for 2 is: 168981093
new weight for 0 is: -21
new weight for 1 is: -168980965
new weight for 2 is: 168981093
new weight for 0 is: -21
new weight for 1 is: -171544597
new weight for 2 is: 171544677
new weight for 0 is: -21
new weight for 1 is: -171544597
new weight for 2 is: 171544677
new weight for 0 is: -21
new weight for 1 is: -172683925
new weight for 2 is: 172684005
new weight for 0 is: -21
new weight for 1 is: -172683925
new weight for 2 is: 172684005
new weight for 0 is: -21
new weight for 1 is: -172683925
new weight for 2 is: 172684005
new weight for 0 is: -21
new weight for 1 is: -172683925
new weight for 2 is: 172684005
new weight for 0 is: -21
new weight for 1 is: -172683925
new weight for 2 is: 172684005
new weight for 0 is: -21
new weight for 1 is: -173823253
new weight for 2 is: 173823333
new weight for 0 is: -21
new weight for 1 is: -173823253
new weight for 2 is: 173823333
new weight for 0 is: -21
new weight for 1 is: -170975077
new weight for 2 is: 170975205
new weight for 0 is: -21
new weight for 1 is: -170975077
new weight for 2 is: 170975205
new weight for 0 is: -21
new weight for 1 is: -175247629
new weight for 2 is: 175247717
new weight for 0 is: -21
new weight for 1 is: -175247629
new weight for 2 is: 175247717
new weight for 0 is: -21
new weight for 1 is: -175817365
new weight for 2 is: 175817445
new weight for 0 is: -21
new weight for 1 is: -176102197
new weight for 2 is: 176102309
new weight for 0 is: -21
new weight for 1 is: -176102197
new weight for 2 is: 176102309
new weight for 0 is: -21
new weight for 1 is: -176102197
new weight for 2 is: 176102309
new weight for 0 is: -21
new weight for 1 is: -176671861
new weight for 2 is: 176671973
new weight for 0 is: -21
new weight for 1 is: -170690533
new weight for 2 is: 170690661
new weight for 0 is: -21
new weight for 1 is: -170690533
new weight for 2 is: 170690661
new weight for 0 is: -21
new weight for 1 is: -170690533
new weight for 2 is: 170690661
new weight for 0 is: -21
new weight for 1 is: -170690533
new weight for 2 is: 170690661
new weight for 0 is: -21
new weight for 1 is: -171260197
new weight for 2 is: 171260325
new weight for 0 is: -21
new weight for 1 is: -171260197
new weight for 2 is: 171260325
new weight for 0 is: -21
new weight for 1 is: -171260197
new weight for 2 is: 171260325
new weight for 0 is: -21
new weight for 1 is: -176956837
new weight for 2 is: 176956965
new weight for 0 is: -21
new weight for 1 is: -176956837
new weight for 2 is: 176956965
new weight for 0 is: -21
new weight for 1 is: -168696565
new weight for 2 is: 168696677
new weight for 0 is: -21
new weight for 1 is: -168696565
new weight for 2 is: 168696677
new weight for 0 is: -21
new weight for 1 is: -169266373
new weight for 2 is: 169266469
new weight for 0 is: -21
new weight for 1 is: -171545101
new weight for 2 is: 171545189
new weight for 0 is: -21
new weight for 1 is: -171545101
new weight for 2 is: 171545189
new weight for 0 is: -21
new weight for 1 is: -171829933
new weight for 2 is: 171830053
new weight for 0 is: -21
new weight for 1 is: -171829933
new weight for 2 is: 171830053
new weight for 0 is: -21
new weight for 1 is: -174108589
new weight for 2 is: 174108709
new weight for 0 is: -21
new weight for 1 is: -174108589
new weight for 2 is: 174108709
new weight for 0 is: -21
new weight for 1 is: -174393421
new weight for 2 is: 174393509
new weight for 0 is: -21
new weight for 1 is: -174393421
new weight for 2 is: 174393509
new weight for 0 is: -21
new weight for 1 is: -174678253
new weight for 2 is: 174678373
new weight for 0 is: -21
new weight for 1 is: -174678253
new weight for 2 is: 174678373
new weight for 0 is: -21
new weight for 1 is: -175532749
new weight for 2 is: 175532837
new weight for 0 is: -21
new weight for 1 is: -179235565
new weight for 2 is: 179235685
new weight for 0 is: -21
new weight for 1 is: -178381141
new weight for 2 is: 178381221
new weight for 0 is: -21
new weight for 1 is: -178381141
new weight for 2 is: 178381221
new weight for 0 is: -21
new weight for 1 is: -178381141
new weight for 2 is: 178381221
new weight for 0 is: -21
new weight for 1 is: -178381141
new weight for 2 is: 178381221
new weight for 0 is: -21
new weight for 1 is: -178381141
new weight for 2 is: 178381221
new weight for 0 is: -21
new weight for 1 is: -168696781
new weight for 2 is: 168696869
new weight for 0 is: -21
new weight for 1 is: -168696781
new weight for 2 is: 168696869
new weight for 0 is: -21
new weight for 1 is: -168696781
new weight for 2 is: 168696869
new weight for 0 is: -21
new weight for 1 is: -168981685
new weight for 2 is: 168981797
new weight for 0 is: -21
new weight for 1 is: -168981685
new weight for 2 is: 168981797
new weight for 0 is: -21
new weight for 1 is: -171830149
new weight for 2 is: 171830245
new weight for 0 is: -21
new weight for 1 is: -171830149
new weight for 2 is: 171830245
new weight for 0 is: -21
new weight for 1 is: -175248205
new weight for 2 is: 175248293
new weight for 0 is: -21
new weight for 1 is: -175248205
new weight for 2 is: 175248293
new weight for 0 is: -21
new weight for 1 is: -176387533
new weight for 2 is: 176387621
new weight for 0 is: -21
new weight for 1 is: -176387533
new weight for 2 is: 176387621
new weight for 0 is: -21
new weight for 1 is: -177526861
new weight for 2 is: 177526949
new weight for 0 is: -21
new weight for 1 is: -177526861
new weight for 2 is: 177526949
new weight for 0 is: -21
new weight for 1 is: -178381357
new weight for 2 is: 178381477
new weight for 0 is: -21
new weight for 1 is: -178381357
new weight for 2 is: 178381477
new weight for 0 is: -21
new weight for 1 is: -170406133
new weight for 2 is: 170406245
new weight for 0 is: -21
new weight for 1 is: -170406133
new weight for 2 is: 170406245
new weight for 0 is: -21
new weight for 1 is: -172399957
new weight for 2 is: 172400037
new weight for 0 is: -21
new weight for 1 is: -172399957
new weight for 2 is: 172400037
new weight for 0 is: -21
new weight for 1 is: -172399957
new weight for 2 is: 172400037
new weight for 0 is: -21
new weight for 1 is: -172399957
new weight for 2 is: 172400037
new weight for 0 is: -21
new weight for 1 is: -172684789
new weight for 2 is: 172684901
new weight for 0 is: -21
new weight for 1 is: -172684789
new weight for 2 is: 172684901
new weight for 0 is: -21
new weight for 1 is: -172969621
new weight for 2 is: 172969701
new weight for 0 is: -21
new weight for 1 is: -172969621
new weight for 2 is: 172969701
new weight for 0 is: -21
new weight for 1 is: -169836613
new weight for 2 is: 169836709
new weight for 0 is: -21
new weight for 1 is: -169836613
new weight for 2 is: 169836709
new weight for 0 is: -21
new weight for 1 is: -174109093
new weight for 2 is: 174109221
new weight for 0 is: -21
new weight for 1 is: -174109093
new weight for 2 is: 174109221
new weight for 0 is: -21
new weight for 1 is: -172685005
new weight for 2 is: 172685093
new weight for 0 is: -21
new weight for 1 is: -172685005
new weight for 2 is: 172685093
new weight for 0 is: -21
new weight for 1 is: -172685005
new weight for 2 is: 172685093
new weight for 0 is: -21
new weight for 1 is: -172969837
new weight for 2 is: 172969957
new weight for 0 is: -21
new weight for 1 is: -173539501
new weight for 2 is: 173539621
new weight for 0 is: -21
new weight for 1 is: -173539501
new weight for 2 is: 173539621
new weight for 0 is: -21
new weight for 1 is: -170691253
new weight for 2 is: 170691365
new weight for 0 is: -21
new weight for 1 is: -170691253
new weight for 2 is: 170691365
new weight for 0 is: -21
new weight for 1 is: -173254741
new weight for 2 is: 173254821
new weight for 0 is: -21
new weight for 1 is: -173254741
new weight for 2 is: 173254821
new weight for 0 is: -21
new weight for 1 is: -168127621
new weight for 2 is: 168127717
new weight for 0 is: -21
new weight for 1 is: -168127621
new weight for 2 is: 168127717
new weight for 0 is: -21
new weight for 1 is: -168982333
new weight for 2 is: 168982437
new weight for 0 is: -21
new weight for 1 is: -168982333
new weight for 2 is: 168982437
new weight for 0 is: -21
new weight for 1 is: -170121805
new weight for 2 is: 170121893
new weight for 0 is: -21
new weight for 1 is: -170121805
new weight for 2 is: 170121893
new weight for 0 is: -21
new weight for 1 is: -170691469
new weight for 2 is: 170691557
new weight for 0 is: -21
new weight for 1 is: -170691469
new weight for 2 is: 170691557
new weight for 0 is: -21
new weight for 1 is: -170691469
new weight for 2 is: 170691557
new weight for 0 is: -21
new weight for 1 is: -171261133
new weight for 2 is: 171261221
new weight for 0 is: -21
new weight for 1 is: -171261133
new weight for 2 is: 171261221
new weight for 0 is: -21
new weight for 1 is: -171830797
new weight for 2 is: 171830885
new weight for 0 is: -21
new weight for 1 is: -171830797
new weight for 2 is: 171830885
new weight for 0 is: -21
new weight for 1 is: -171830797
new weight for 2 is: 171830885
new weight for 0 is: -21
new weight for 1 is: -172400461
new weight for 2 is: 172400549
new weight for 0 is: -21
new weight for 1 is: -172685293
new weight for 2 is: 172685413
new weight for 0 is: -21
new weight for 1 is: -172685293
new weight for 2 is: 172685413
new weight for 0 is: -21
new weight for 1 is: -172685293
new weight for 2 is: 172685413
new weight for 0 is: -21
new weight for 1 is: -172685293
new weight for 2 is: 172685413
new weight for 0 is: -21
new weight for 1 is: -173824621
new weight for 2 is: 173824741
new weight for 0 is: -21
new weight for 1 is: -173824621
new weight for 2 is: 173824741
new weight for 0 is: -21
new weight for 1 is: -173824621
new weight for 2 is: 173824741
new weight for 0 is: -21
new weight for 1 is: -173824621
new weight for 2 is: 173824741
new weight for 0 is: -21
new weight for 1 is: -178666765
new weight for 2 is: 178666853
new weight for 0 is: -21
new weight for 1 is: -178666765
new weight for 2 is: 178666853
new weight for 0 is: -21
new weight for 1 is: -178952173
new weight for 2 is: 178952293
new weight for 0 is: -21
new weight for 1 is: -178952173
new weight for 2 is: 178952293
new weight for 0 is: -21
new weight for 1 is: -179237077
new weight for 2 is: 179237157
new weight for 0 is: -21
new weight for 1 is: -179237077
new weight for 2 is: 179237157
new weight for 0 is: -21
new weight for 1 is: -173255677
new weight for 2 is: 173255781
new weight for 0 is: -21
new weight for 1 is: -173255677
new weight for 2 is: 173255781
new weight for 0 is: -21
new weight for 1 is: -173255677
new weight for 2 is: 173255781
new weight for 0 is: -21
new weight for 1 is: -173255677
new weight for 2 is: 173255781
new weight for 0 is: -21
new weight for 1 is: -169837909
new weight for 2 is: 169837989
new weight for 0 is: -21
new weight for 1 is: -169837909
new weight for 2 is: 169837989
new weight for 0 is: -21
new weight for 1 is: -169837909
new weight for 2 is: 169837989
new weight for 0 is: -21
new weight for 1 is: -173256037
new weight for 2 is: 173256165
new weight for 0 is: -21
new weight for 1 is: -173256037
new weight for 2 is: 173256165
new weight for 0 is: -21
new weight for 1 is: -174395365
new weight for 2 is: 174395493
new weight for 0 is: -21
new weight for 1 is: -171547117
new weight for 2 is: 171547237
new weight for 0 is: -21
new weight for 1 is: -171547117
new weight for 2 is: 171547237
new weight for 0 is: -21
new weight for 1 is: -167843941
new weight for 2 is: 167844069
new weight for 0 is: -21
new weight for 1 is: -167843941
new weight for 2 is: 167844069
new weight for 0 is: -21
new weight for 1 is: -168413749
new weight for 2 is: 168413861
new weight for 0 is: -21
new weight for 1 is: -168413749
new weight for 2 is: 168413861
new weight for 0 is: -21
new weight for 1 is: -168413749
new weight for 2 is: 168413861
new weight for 0 is: -21
new weight for 1 is: -168413749
new weight for 2 is: 168413861
new weight for 0 is: -21
new weight for 1 is: -169268461
new weight for 2 is: 169268581
new weight for 0 is: -21
new weight for 1 is: -177243901
new weight for 2 is: 177244005
new weight for 0 is: -21
new weight for 1 is: -177243901
new weight for 2 is: 177244005
new weight for 0 is: -21
new weight for 1 is: -170123173
new weight for 2 is: 170123301
new weight for 0 is: -21
new weight for 1 is: -170123173
new weight for 2 is: 170123301
new weight for 0 is: -21
new weight for 1 is: -170123173
new weight for 2 is: 170123301
new weight for 0 is: -21
new weight for 1 is: -170123173
new weight for 2 is: 170123301
new weight for 0 is: -21
new weight for 1 is: -171262501
new weight for 2 is: 171262629
new weight for 0 is: -21
new weight for 1 is: -171262501
new weight for 2 is: 171262629
new weight for 0 is: -21
new weight for 1 is: -169838629
new weight for 2 is: 169838757
new weight for 0 is: -21
new weight for 1 is: -169838629
new weight for 2 is: 169838757
new weight for 0 is: -21
new weight for 1 is: -173826277
new weight for 2 is: 173826405
new weight for 0 is: -21
new weight for 1 is: -173826277
new weight for 2 is: 173826405
new weight for 0 is: -21
new weight for 1 is: -171547693
new weight for 2 is: 171547813
new weight for 0 is: -21
new weight for 1 is: -171547693
new weight for 2 is: 171547813
new weight for 0 is: -21
new weight for 1 is: -172687021
new weight for 2 is: 172687141
new weight for 0 is: -21
new weight for 1 is: -172687021
new weight for 2 is: 172687141
new weight for 0 is: -21
new weight for 1 is: -178383661
new weight for 2 is: 178383781
new weight for 0 is: -21
new weight for 1 is: -178668493
new weight for 2 is: 178668581
new weight for 0 is: -21
new weight for 1 is: -178668493
new weight for 2 is: 178668581
new weight for 0 is: -21
new weight for 1 is: -178668493
new weight for 2 is: 178668581
new weight for 0 is: -21
new weight for 1 is: -178668493
new weight for 2 is: 178668581
new weight for 0 is: -21
new weight for 1 is: -169838917
new weight for 2 is: 169839013
new weight for 0 is: -21
new weight for 1 is: -169838917
new weight for 2 is: 169839013
new weight for 0 is: -21
new weight for 1 is: -169838917
new weight for 2 is: 169839013
new weight for 0 is: -21
new weight for 1 is: -169838917
new weight for 2 is: 169839013
new weight for 0 is: -21
new weight for 1 is: -169838917
new weight for 2 is: 169839013
new weight for 0 is: -21
new weight for 1 is: -170408725
new weight for 2 is: 170408805
new weight for 0 is: -21
new weight for 1 is: -170408725
new weight for 2 is: 170408805
new weight for 0 is: -21
new weight for 1 is: -169839277
new weight for 2 is: 169839397
new weight for 0 is: -21
new weight for 1 is: -169839277
new weight for 2 is: 169839397
new weight for 0 is: -21
new weight for 1 is: -170124109
new weight for 2 is: 170124197
new weight for 0 is: -21
new weight for 1 is: -170124109
new weight for 2 is: 170124197
new weight for 0 is: -21
new weight for 1 is: -178099477
new weight for 2 is: 178099557
new weight for 0 is: -21
new weight for 1 is: -178099477
new weight for 2 is: 178099557
new weight for 0 is: -21
new weight for 1 is: -178384309
new weight for 2 is: 178384421
new weight for 0 is: -21
new weight for 1 is: -178384309
new weight for 2 is: 178384421
new weight for 0 is: -21
new weight for 1 is: -179238805
new weight for 2 is: 179238885
new weight for 0 is: -21
new weight for 1 is: -179238805
new weight for 2 is: 179238885
new weight for 0 is: -21
new weight for 1 is: -172687813
new weight for 2 is: 172687909
new weight for 0 is: -21
new weight for 1 is: -170131093
new weight for 2 is: 170131173
new weight for 0 is: -21
new weight for 1 is: -170131093
new weight for 2 is: 170131173
new weight for 0 is: -21
new weight for 1 is: -170700757
new weight for 2 is: 170700837
new weight for 0 is: -21
new weight for 1 is: -170700757
new weight for 2 is: 170700837
new weight for 0 is: -21
new weight for 1 is: -172694869
new weight for 2 is: 172694949
new weight for 0 is: -21
new weight for 1 is: -172694869
new weight for 2 is: 172694949
new weight for 0 is: -21
new weight for 1 is: -175258357
new weight for 2 is: 175258469
new weight for 0 is: -21
new weight for 1 is: -175258357
new weight for 2 is: 175258469
new weight for 0 is: -21
new weight for 1 is: -175258357
new weight for 2 is: 175258469
new weight for 0 is: -21
new weight for 1 is: -178961173
new weight for 2 is: 178961253
new weight for 0 is: -21
new weight for 1 is: -178961173
new weight for 2 is: 178961253
new weight for 0 is: -21
new weight for 1 is: -175543333
new weight for 2 is: 175543461
new weight for 0 is: -21
new weight for 1 is: -175543333
new weight for 2 is: 175543461
new weight for 0 is: -21
new weight for 1 is: 4194283
new weight for 2 is: -4194155
new weight for 0 is: -21
new weight for 1 is: -21923776
new weight for 2 is: 21923896
new weight for 0 is: -21
new weight for 1 is: -21923816
new weight for 2 is: 21923936
new weight for 0 is: -21
new weight for 1 is: -21923816
new weight for 2 is: 21923936
new weight for 0 is: -21
new weight for 1 is: -21923816
new weight for 2 is: 21923936
new weight for 0 is: -21
new weight for 1 is: -167754085
new weight for 2 is: 167754213
new weight for 0 is: -21
new weight for 1 is: -167754085
new weight for 2 is: 167754213
new weight for 0 is: -21
new weight for 1 is: -176406901
new weight for 2 is: 176407013
new weight for 0 is: -21
new weight for 1 is: -176406901
new weight for 2 is: 176407013
new weight for 0 is: -21
new weight for 1 is: -176124589
new weight for 2 is: 176124709
new weight for 0 is: -21
new weight for 1 is: -176124589
new weight for 2 is: 176124709
new weight for 0 is: -21
new weight for 1 is: -170428237
new weight for 2 is: 170428325
new weight for 0 is: -21
new weight for 1 is: -170428237
new weight for 2 is: 170428325
new weight for 0 is: -21
new weight for 1 is: -172991725
new weight for 2 is: 172991845
new weight for 0 is: -21
new weight for 1 is: -172991725
new weight for 2 is: 172991845
new weight for 0 is: -21
new weight for 1 is: -175270381
new weight for 2 is: 175270501
new weight for 0 is: -21
new weight for 1 is: -175270381
new weight for 2 is: 175270501
new weight for 0 is: -21
new weight for 1 is: -169858645
new weight for 2 is: 169858725
new weight for 0 is: -21
new weight for 1 is: -170143477
new weight for 2 is: 170143589
new weight for 0 is: -21
new weight for 1 is: -170143477
new weight for 2 is: 170143589
new weight for 0 is: -21
new weight for 1 is: -170143477
new weight for 2 is: 170143589
new weight for 0 is: -21
new weight for 1 is: -170143477
new weight for 2 is: 170143589
new weight for 0 is: -21
new weight for 1 is: -174415957
new weight for 2 is: 174416037
new weight for 0 is: -21
new weight for 1 is: -178403821
new weight for 2 is: 178403941
new weight for 0 is: -21
new weight for 1 is: -178403821
new weight for 2 is: 178403941
new weight for 0 is: -21
new weight for 1 is: -167754085
new weight for 2 is: 167754213
new weight for 0 is: -21
new weight for 1 is: -167754085
new weight for 2 is: 167754213
new weight for 0 is: -21
new weight for 1 is: -167754085
new weight for 2 is: 167754213
new weight for 0 is: -21
new weight for 1 is: -167754085
new weight for 2 is: 167754213
new weight for 0 is: -21
new weight for 1 is: -167754085
new weight for 2 is: 167754213
new weight for 0 is: -21
new weight for 1 is: -175555645
new weight for 2 is: 175555749
new weight for 0 is: -21
new weight for 1 is: -175555645
new weight for 2 is: 175555749
new weight for 0 is: -21
new weight for 1 is: -174986053
new weight for 2 is: 174986149
new weight for 0 is: -21
new weight for 1 is: -174986053
new weight for 2 is: 174986149
new weight for 0 is: -21
new weight for 1 is: -175840765
new weight for 2 is: 175840869
new weight for 0 is: -21
new weight for 1 is: -175840765
new weight for 2 is: 175840869
new weight for 0 is: -21
new weight for 1 is: -172992589
new weight for 2 is: 172992677
new weight for 0 is: -21
new weight for 1 is: -172992589
new weight for 2 is: 172992677
new weight for 0 is: -21
new weight for 1 is: -176695405
new weight for 2 is: 176695525
new weight for 0 is: -21
new weight for 1 is: -176695405
new weight for 2 is: 176695525
new weight for 0 is: -21
new weight for 1 is: -170429389
new weight for 2 is: 170429477
new weight for 0 is: -21
new weight for 1 is: -173277709
new weight for 2 is: 173277797
new weight for 0 is: -21
new weight for 1 is: -174132205
new weight for 2 is: 174132325
new weight for 0 is: -21
new weight for 1 is: -174132205
new weight for 2 is: 174132325
new weight for 0 is: -21
new weight for 1 is: -176410861
new weight for 2 is: 176410981
new weight for 0 is: -21
new weight for 1 is: -170714293
new weight for 2 is: 170714405
new weight for 0 is: -21
new weight for 1 is: -170714293
new weight for 2 is: 170714405
new weight for 0 is: -21
new weight for 1 is: -173847445
new weight for 2 is: 173847525
new weight for 0 is: -21
new weight for 1 is: -173847445
new weight for 2 is: 173847525
new weight for 0 is: -21
new weight for 1 is: -174417109
new weight for 2 is: 174417189
new weight for 0 is: -21
new weight for 1 is: -174417109
new weight for 2 is: 174417189
new weight for 0 is: -21
new weight for 1 is: -174701941
new weight for 2 is: 174702053
new weight for 0 is: -21
new weight for 1 is: -174701941
new weight for 2 is: 174702053
new weight for 0 is: -21
new weight for 1 is: -175556437
new weight for 2 is: 175556517
new weight for 0 is: -21
new weight for 1 is: -175556437
new weight for 2 is: 175556517
new weight for 0 is: -21
new weight for 1 is: -176126101
new weight for 2 is: 176126181
new weight for 0 is: -21
new weight for 1 is: -176126101
new weight for 2 is: 176126181
new weight for 0 is: -21
new weight for 1 is: -177835093
new weight for 2 is: 177835173
new weight for 0 is: -21
new weight for 1 is: -177835093
new weight for 2 is: 177835173
new weight for 0 is: -21
new weight for 1 is: -177835093
new weight for 2 is: 177835173
new weight for 0 is: -21
new weight for 1 is: -177835093
new weight for 2 is: 177835173
new weight for 0 is: -21
new weight for 1 is: -169290133
new weight for 2 is: 169290213
new weight for 0 is: -21
new weight for 1 is: -169290133
new weight for 2 is: 169290213
new weight for 0 is: -21
new weight for 1 is: -169290133
new weight for 2 is: 169290213
new weight for 0 is: -21
new weight for 1 is: -169290133
new weight for 2 is: 169290213
new weight for 0 is: -21
new weight for 1 is: -173847589
new weight for 2 is: 173847717
new weight for 0 is: -21
new weight for 1 is: -175841413
new weight for 2 is: 175841509
new weight for 0 is: -21
new weight for 1 is: -176695909
new weight for 2 is: 176696037
new weight for 0 is: -21
new weight for 1 is: -176695909
new weight for 2 is: 176696037
new weight for 0 is: -21
new weight for 1 is: -169575181
new weight for 2 is: 169575269
new weight for 0 is: -21
new weight for 1 is: -169575181
new weight for 2 is: 169575269
new weight for 0 is: -21
new weight for 1 is: -169575181
new weight for 2 is: 169575269
new weight for 0 is: -21
new weight for 1 is: -169575181
new weight for 2 is: 169575269
new weight for 0 is: -21
new weight for 1 is: -169290493
new weight for 2 is: 169290597
new weight for 0 is: -21
new weight for 1 is: -169860229
new weight for 2 is: 169860325
new weight for 0 is: -21
new weight for 1 is: -170145061
new weight for 2 is: 170145189
new weight for 0 is: -21
new weight for 1 is: -170145061
new weight for 2 is: 170145189
new weight for 0 is: -21
new weight for 1 is: -170429893
new weight for 2 is: 170429989
new weight for 0 is: -21
new weight for 1 is: -170429893
new weight for 2 is: 170429989
new weight for 0 is: -21
new weight for 1 is: -170429893
new weight for 2 is: 170429989
new weight for 0 is: -21
new weight for 1 is: -170429893
new weight for 2 is: 170429989
new weight for 0 is: -21
new weight for 1 is: -170999557
new weight for 2 is: 170999653
new weight for 0 is: -21
new weight for 1 is: -170999557
new weight for 2 is: 170999653
new weight for 0 is: -21
new weight for 1 is: -172423717
new weight for 2 is: 172423845
new weight for 0 is: -21
new weight for 1 is: -172423717
new weight for 2 is: 172423845
new weight for 0 is: -21
new weight for 1 is: -173563045
new weight for 2 is: 173563173
new weight for 0 is: -21
new weight for 1 is: -173563045
new weight for 2 is: 173563173
new weight for 0 is: -21
new weight for 1 is: 4194283
new weight for 2 is: -4194155
new weight for 0 is: -21
new weight for 1 is: 4194323
new weight for 2 is: -4194195
new weight for 0 is: -21
new weight for 1 is: 4194323
new weight for 2 is: -4194195
new weight for 0 is: -21
new weight for 1 is: 4194323
new weight for 2 is: -4194195
new weight for 0 is: -21
new weight for 1 is: -31052394
new weight for 2 is: 31052514
new weight for 0 is: -21
new weight for 1 is: -31052434
new weight for 2 is: 31052554
new weight for 0 is: -21
new weight for 1 is: -31337235
new weight for 2 is: 31337363
new weight for 0 is: -21
new weight for 1 is: -31337235
new weight for 2 is: 31337363
new weight for 0 is: -21
new weight for 1 is: -175280317
new weight for 2 is: 175280421
new weight for 0 is: -21
new weight for 1 is: -175280317
new weight for 2 is: 175280421
new weight for 0 is: -21
new weight for 1 is: -174999733
new weight for 2 is: 174999845
new weight for 0 is: -21
new weight for 1 is: -174999733
new weight for 2 is: 174999845
new weight for 0 is: -21
new weight for 1 is: -176139061
new weight for 2 is: 176139173
new weight for 0 is: -21
new weight for 1 is: -176139061
new weight for 2 is: 176139173
new weight for 0 is: -21
new weight for 1 is: -179272213
new weight for 2 is: 179272293
new weight for 0 is: -21
new weight for 1 is: -179272213
new weight for 2 is: 179272293
new weight for 0 is: -21
new weight for 1 is: -178988821
new weight for 2 is: 178988901
new weight for 0 is: -21
new weight for 1 is: -178988821
new weight for 2 is: 178988901
new weight for 0 is: -21
new weight for 1 is: -170159245
new weight for 2 is: 170159333
new weight for 0 is: -21
new weight for 1 is: -170159245
new weight for 2 is: 170159333
new weight for 0 is: -21
new weight for 1 is: -175571989
new weight for 2 is: 175572069
new weight for 0 is: -21
new weight for 1 is: -175571989
new weight for 2 is: 175572069
new weight for 0 is: -21
new weight for 1 is: -169591237
new weight for 2 is: 169591333
new weight for 0 is: -21
new weight for 1 is: -169591237
new weight for 2 is: 169591333
new weight for 0 is: -21
new weight for 1 is: -171300229
new weight for 2 is: 171300325
new weight for 0 is: -21
new weight for 1 is: -171300229
new weight for 2 is: 171300325
new weight for 0 is: -21
new weight for 1 is: -173009221
new weight for 2 is: 173009317
new weight for 0 is: -21
new weight for 1 is: -173009221
new weight for 2 is: 173009317
new weight for 0 is: -21
new weight for 1 is: -178990693
new weight for 2 is: 178990821
new weight for 0 is: -21
new weight for 1 is: -178990693
new weight for 2 is: 178990821
Exiting @ tick 71919636000 because a thread reached the max instruction count
