Running SPEC test: x264

/home/victorfu/cpu2017/benchspec/CPU/525.x264_r
gem5 Simulator System.  http://gem5.org
gem5 is copyrighted software; use the --copyright option for details.

gem5 compiled Jun 12 2019 22:55:31
gem5 started Jun 14 2019 10:01:01
gem5 executing on tetracosa.cs.ucla.edu, pid 87584
command line: /home/victorfu/finalproject/gem5/build/X86/gem5.opt --outdir=/home/victorfu/output/bench_spec/simple/x264 /home/victorfu/finalproject/gem5/configs/example/se.py --caches --l2cache --cmd=x264_r_base.victor_jun10-m64 --l1i_size=16kB --l1d_size=64kB --l2_size=256kB --cpu-type=DerivO3CPU --mem-type=DDR3_1600_8x8 --cpu-clock=1GHz --maxinsts=100000000 '--options=--pass 2 --stats x264_stats.log --bitrate 1000 --dumpyuv 200 --frames 1000 -o BuckBunny_New.264 BuckBunny.yuv 1280x720' --l2-hwp-type=TaggedPrefetcher --mlu_pf_type=perceptron

info: Standard input is not a terminal, disabling listeners.
Warning: l2-hwp-type is set ( TaggedPrefetcher ), but the current l2 has a default Hardware Prefetcher of type <class 'm5.params.NullSimObject'> , using the specified by the flag option.
MLU-Prefetch Perceptron Enabled.
Global frequency set at 1000000000000 ticks per second
warn: DRAM device capacity (8192 Mbytes) does not match the address range assigned (512 Mbytes)
PerceptronUnit is in mode: PC_DELTA_ADDR
warn: Sockets disabled, not accepting gdb connections
**** REAL SIMULATION ****
info: Entering event queue @ 0.  Starting simulation...
new weight for 0 is: -1
new weight for 1 is: -137314615
new weight for 2 is: 137314703
new weight for 0 is: -2
new weight for 1 is: -137314635
new weight for 2 is: 137314723
info: Increasing stack size by one page.
warn: ignoring syscall access(...)
warn: ignoring syscall mprotect(...)
warn: ignoring syscall mprotect(...)
warn: ignoring syscall mprotect(...)
warn: ignoring syscall mprotect(...)
warn: ignoring syscall mprotect(...)
warn: ignoring syscall mprotect(...)
new weight for 0 is: -3
new weight for 1 is: 4194280
new weight for 2 is: -4194152
new weight for 0 is: -4
new weight for 1 is: 4194320
new weight for 2 is: -4194192
new weight for 0 is: -5
new weight for 1 is: 3481474
new weight for 2 is: -3481402
new weight for 0 is: -6
new weight for 1 is: 3481474
new weight for 2 is: -3481402
new weight for 0 is: -7
new weight for 1 is: 3481474
new weight for 2 is: -3481402
new weight for 0 is: -8
new weight for 1 is: 3481474
new weight for 2 is: -3481402
new weight for 0 is: -9
new weight for 1 is: 3481474
new weight for 2 is: -3481402
new weight for 0 is: -10
new weight for 1 is: 3481474
new weight for 2 is: -3481402
new weight for 0 is: -11
new weight for 1 is: 3481474
new weight for 2 is: -3481402
new weight for 0 is: -12
new weight for 1 is: 3481474
new weight for 2 is: -3481402
new weight for 0 is: -13
new weight for 1 is: 3481474
new weight for 2 is: -3481402
new weight for 0 is: -14
new weight for 1 is: 3481474
new weight for 2 is: -3481402
new weight for 0 is: -15
new weight for 1 is: 3481474
new weight for 2 is: -3481402
new weight for 0 is: -16
new weight for 1 is: 3481474
new weight for 2 is: -3481402
new weight for 0 is: -17
new weight for 1 is: -137286078
new weight for 2 is: 137286150
new weight for 0 is: -18
new weight for 1 is: 4194284
new weight for 2 is: -4194156
new weight for 0 is: -19
new weight for 1 is: 4194324
new weight for 2 is: -4194196
new weight for 0 is: -20
new weight for 1 is: 4194324
new weight for 2 is: -4194196
new weight for 0 is: -21
new weight for 1 is: 4194324
new weight for 2 is: -4194196
new weight for 0 is: -21
new weight for 1 is: 3480964
new weight for 2 is: -3480852
new weight for 0 is: -21
new weight for 1 is: 3480964
new weight for 2 is: -3480852
new weight for 0 is: -21
new weight for 1 is: -137288245
new weight for 2 is: 137288317
new weight for 0 is: -21
new weight for 1 is: -137300345
new weight for 2 is: 137300417
new weight for 0 is: -21
new weight for 1 is: -137300345
new weight for 2 is: 137300417
new weight for 0 is: -21
new weight for 1 is: -137300345
new weight for 2 is: 137300417
new weight for 0 is: -21
new weight for 1 is: -137300345
new weight for 2 is: 137300417
new weight for 0 is: -21
new weight for 1 is: 4194299
new weight for 2 is: -4194171
new weight for 0 is: -21
new weight for 1 is: 4194339
new weight for 2 is: -4194211
new weight for 0 is: -21
new weight for 1 is: 4194339
new weight for 2 is: -4194211
new weight for 0 is: -21
new weight for 1 is: 4194339
new weight for 2 is: -4194211
new weight for 0 is: -21
new weight for 1 is: -140535787
new weight for 2 is: 140535887
new weight for 0 is: -21
new weight for 1 is: -140535827
new weight for 2 is: 140535927
new weight for 0 is: -21
new weight for 1 is: -140535827
new weight for 2 is: 140535927
new weight for 0 is: -21
new weight for 1 is: 4194280
new weight for 2 is: -4194152
new weight for 0 is: -21
new weight for 1 is: 4194320
new weight for 2 is: -4194192
new weight for 0 is: -21
new weight for 1 is: 4194320
new weight for 2 is: -4194192
new weight for 0 is: -21
new weight for 1 is: 4194320
new weight for 2 is: -4194192
new weight for 0 is: -21
new weight for 1 is: -147771375
new weight for 2 is: 147771503
new weight for 0 is: -21
new weight for 1 is: 4194284
new weight for 2 is: -4194156
new weight for 0 is: -21
new weight for 1 is: 4194324
new weight for 2 is: -4194196
new weight for 0 is: -21
new weight for 1 is: 4194324
new weight for 2 is: -4194196
new weight for 0 is: -21
new weight for 1 is: 4194324
new weight for 2 is: -4194196
new weight for 0 is: -21
new weight for 1 is: -147771356
new weight for 2 is: 147771484
new weight for 0 is: -21
new weight for 1 is: -140562797
new weight for 2 is: 140562925
new weight for 0 is: -21
new weight for 1 is: -140562797
new weight for 2 is: 140562925
new weight for 0 is: -21
new weight for 1 is: -147771396
new weight for 2 is: 147771524
new weight for 0 is: -21
new weight for 1 is: -147771396
new weight for 2 is: 147771524
new weight for 0 is: -21
new weight for 1 is: 4194284
new weight for 2 is: -4194156
new weight for 0 is: -21
new weight for 1 is: 4194324
new weight for 2 is: -4194196
new weight for 0 is: -21
new weight for 1 is: -147771328
new weight for 2 is: 147771456
new weight for 0 is: -21
new weight for 1 is: -147771368
new weight for 2 is: 147771496
new weight for 0 is: -21
new weight for 1 is: -147771368
new weight for 2 is: 147771496
new weight for 0 is: -21
new weight for 1 is: -147771368
new weight for 2 is: 147771496
new weight for 0 is: -21
new weight for 1 is: 4194316
new weight for 2 is: -4194188
new weight for 0 is: -21
new weight for 1 is: 4194356
new weight for 2 is: -4194228
new weight for 0 is: -21
new weight for 1 is: -151278863
new weight for 2 is: 151278983
new weight for 0 is: -21
new weight for 1 is: -151278903
new weight for 2 is: 151279023
new weight for 0 is: -21
new weight for 1 is: -151278903
new weight for 2 is: 151279023
new weight for 0 is: -21
new weight for 1 is: -151278903
new weight for 2 is: 151279023
new weight for 0 is: -21
new weight for 1 is: -151278903
new weight for 2 is: 151279023
new weight for 0 is: -21
new weight for 1 is: -151278903
new weight for 2 is: 151279023
new weight for 0 is: -21
new weight for 1 is: -151278903
new weight for 2 is: 151279023
new weight for 0 is: -21
new weight for 1 is: 4194280
new weight for 2 is: -4194152
new weight for 0 is: -21
new weight for 1 is: 4194320
new weight for 2 is: -4194192
new weight for 0 is: -21
new weight for 1 is: 4194320
new weight for 2 is: -4194192
new weight for 0 is: -21
new weight for 1 is: 4194320
new weight for 2 is: -4194192
new weight for 0 is: -21
new weight for 1 is: -147771375
new weight for 2 is: 147771503
new weight for 0 is: -21
new weight for 1 is: 4194316
new weight for 2 is: -4194188
new weight for 0 is: -21
new weight for 1 is: 4194356
new weight for 2 is: -4194228
new weight for 0 is: -21
new weight for 1 is: -136407275
new weight for 2 is: 136407382
new weight for 0 is: -21
new weight for 1 is: 4194300
new weight for 2 is: -4194172
new weight for 0 is: -21
new weight for 1 is: 4194340
new weight for 2 is: -4194212
new weight for 0 is: -21
new weight for 1 is: 4194340
new weight for 2 is: -4194212
new weight for 0 is: -21
new weight for 1 is: 4194340
new weight for 2 is: -4194212
new weight for 0 is: -21
new weight for 1 is: 4194340
new weight for 2 is: -4194212
new weight for 0 is: -21
new weight for 1 is: 4194340
new weight for 2 is: -4194212
new weight for 0 is: -21
new weight for 1 is: 4194340
new weight for 2 is: -4194212
new weight for 0 is: -21
new weight for 1 is: 4194340
new weight for 2 is: -4194212
new weight for 0 is: -21
new weight for 1 is: -147771356
new weight for 2 is: 147771484
new weight for 0 is: -21
new weight for 1 is: -147771396
new weight for 2 is: 147771524
new weight for 0 is: -21
new weight for 1 is: 4194282
new weight for 2 is: -4194154
new weight for 0 is: -21
new weight for 1 is: 4194322
new weight for 2 is: -4194194
new weight for 0 is: -21
new weight for 1 is: -136407659
new weight for 2 is: 136407766
new weight for 0 is: -21
new weight for 1 is: 3499224
new weight for 2 is: -3499096
new weight for 0 is: -21
new weight for 1 is: 3499264
new weight for 2 is: -3499136
new weight for 0 is: -21
new weight for 1 is: 3499264
new weight for 2 is: -3499136
new weight for 0 is: -21
new weight for 1 is: 3499264
new weight for 2 is: -3499136
new weight for 0 is: -21
new weight for 1 is: 3499264
new weight for 2 is: -3499136
new weight for 0 is: -21
new weight for 1 is: 3499264
new weight for 2 is: -3499136
new weight for 0 is: -21
new weight for 1 is: 3499264
new weight for 2 is: -3499136
new weight for 0 is: -21
new weight for 1 is: 3499264
new weight for 2 is: -3499136
new weight for 0 is: -21
new weight for 1 is: -147771356
new weight for 2 is: 147771484
new weight for 0 is: -21
new weight for 1 is: 4194335
new weight for 2 is: -4194207
new weight for 0 is: -21
new weight for 1 is: 4194375
new weight for 2 is: -4194247
new weight for 0 is: -21
new weight for 1 is: 4194375
new weight for 2 is: -4194247
new weight for 0 is: -21
new weight for 1 is: 4194375
new weight for 2 is: -4194247
new weight for 0 is: -21
new weight for 1 is: -147771324
new weight for 2 is: 147771452
new weight for 0 is: -21
new weight for 1 is: 4194284
new weight for 2 is: -4194156
new weight for 0 is: -21
new weight for 1 is: 4194324
new weight for 2 is: -4194196
new weight for 0 is: -21
new weight for 1 is: -147771372
new weight for 2 is: 147771500
new weight for 0 is: -21
new weight for 1 is: -147771412
new weight for 2 is: 147771540
new weight for 0 is: -21
new weight for 1 is: -147771412
new weight for 2 is: 147771540
new weight for 0 is: -21
new weight for 1 is: -147771412
new weight for 2 is: 147771540
new weight for 0 is: -21
new weight for 1 is: -147771412
new weight for 2 is: 147771540
info: Increasing stack size by one page.
info: Increasing stack size by one page.
yuv [info]: 1280x720p 0:0 @ 25/1 fps (cfr)
new weight for 0 is: -21
new weight for 1 is: 4194344
new weight for 2 is: -4194216
new weight for 0 is: -21
new weight for 1 is: 4194384
new weight for 2 is: -4194256
new weight for 0 is: -21
new weight for 1 is: 4194384
new weight for 2 is: -4194256
new weight for 0 is: -21
new weight for 1 is: 4194384
new weight for 2 is: -4194256
new weight for 0 is: -21
new weight for 1 is: 4194384
new weight for 2 is: -4194256
new weight for 0 is: -21
new weight for 1 is: 4194384
new weight for 2 is: -4194256
new weight for 0 is: -21
new weight for 1 is: 4194321
new weight for 2 is: -4194193
new weight for 0 is: -21
new weight for 1 is: 4194321
new weight for 2 is: -4194193
new weight for 0 is: -21
new weight for 1 is: -147771375
new weight for 2 is: 147771503
new weight for 0 is: -21
new weight for 1 is: -140600488
new weight for 2 is: 140600616
new weight for 0 is: -21
new weight for 1 is: -140600488
new weight for 2 is: 140600616
warn: ignoring syscall rt_sigaction(...)
      (further warnings will be suppressed)
new weight for 0 is: -21
new weight for 1 is: 4194300
new weight for 2 is: -4194172
new weight for 0 is: -21
new weight for 1 is: 4194340
new weight for 2 is: -4194212
new weight for 0 is: -21
new weight for 1 is: 4194340
new weight for 2 is: -4194212
new weight for 0 is: -21
new weight for 1 is: 4194340
new weight for 2 is: -4194212
new weight for 0 is: -21
new weight for 1 is: 4194340
new weight for 2 is: -4194212
new weight for 0 is: -21
new weight for 1 is: 4194340
new weight for 2 is: -4194212
new weight for 0 is: -21
new weight for 1 is: 4194340
new weight for 2 is: -4194212
new weight for 0 is: -21
new weight for 1 is: 4194340
new weight for 2 is: -4194212
new weight for 0 is: -21
new weight for 1 is: -147771340
new weight for 2 is: 147771468
new weight for 0 is: -21
new weight for 1 is: -147771415
new weight for 2 is: 147771543
new weight for 0 is: -21
new weight for 1 is: -147771415
new weight for 2 is: 147771543
new weight for 0 is: -21
new weight for 1 is: 4194284
new weight for 2 is: -4194156
new weight for 0 is: -21
new weight for 1 is: 4194324
new weight for 2 is: -4194196
new weight for 0 is: -21
new weight for 1 is: -137297537
new weight for 2 is: 137297625
new weight for 0 is: -21
new weight for 1 is: -137297577
new weight for 2 is: 137297665
new weight for 0 is: -21
new weight for 1 is: 4194332
new weight for 2 is: -4194204
new weight for 0 is: -21
new weight for 1 is: 4194372
new weight for 2 is: -4194244
new weight for 0 is: -21
new weight for 1 is: -137316545
new weight for 2 is: 137316620
new weight for 0 is: -21
new weight for 1 is: 4194283
new weight for 2 is: -4194155
new weight for 0 is: -21
new weight for 1 is: 4194323
new weight for 2 is: -4194195
new weight for 0 is: -21
new weight for 1 is: 4194323
new weight for 2 is: -4194195
new weight for 0 is: -21
new weight for 1 is: 4194323
new weight for 2 is: -4194195
new weight for 0 is: -21
new weight for 1 is: -3928327
new weight for 2 is: 3928399
new weight for 0 is: -21
new weight for 1 is: -3928367
new weight for 2 is: 3928439
new weight for 0 is: -21
new weight for 1 is: 588080
new weight for 2 is: -587988
new weight for 0 is: -21
new weight for 1 is: 588120
new weight for 2 is: -588028
new weight for 0 is: -21
new weight for 1 is: -151330735
new weight for 2 is: 151330823
new weight for 0 is: -21
new weight for 1 is: 3775739
new weight for 2 is: -3775643
new weight for 0 is: -21
new weight for 1 is: 3775779
new weight for 2 is: -3775683
new weight for 0 is: -21
new weight for 1 is: -3915619
new weight for 2 is: 3915699
new weight for 0 is: -21
new weight for 1 is: 3494238
new weight for 2 is: -3494158
new weight for 0 is: -21
new weight for 1 is: 3494278
new weight for 2 is: -3494198
new weight for 0 is: -21
new weight for 1 is: -3816435
new weight for 2 is: 3816563
new weight for 0 is: -21
new weight for 1 is: -3816475
new weight for 2 is: 3816603
new weight for 0 is: -21
new weight for 1 is: 3493157
new weight for 2 is: -3493029
new weight for 0 is: -21
new weight for 1 is: 3493197
new weight for 2 is: -3493069
new weight for 0 is: -21
new weight for 1 is: -3830618
new weight for 2 is: 3830746
new weight for 0 is: -21
new weight for 1 is: -3830658
new weight for 2 is: 3830786
new weight for 0 is: -21
new weight for 1 is: -3830658
new weight for 2 is: 3830786
new weight for 0 is: -21
new weight for 1 is: -3830658
new weight for 2 is: 3830786
new weight for 0 is: -21
new weight for 1 is: 3492965
new weight for 2 is: -3492837
new weight for 0 is: -21
new weight for 1 is: 3493005
new weight for 2 is: -3492877
new weight for 0 is: -21
new weight for 1 is: -3830810
new weight for 2 is: 3830938
new weight for 0 is: -21
new weight for 1 is: -3830850
new weight for 2 is: 3830978
new weight for 0 is: -21
new weight for 1 is: 3494414
new weight for 2 is: -3494286
new weight for 0 is: -21
new weight for 1 is: 3494454
new weight for 2 is: -3494326
new weight for 0 is: -21
new weight for 1 is: -3831002
new weight for 2 is: 3831130
new weight for 0 is: -21
new weight for 1 is: -3831042
new weight for 2 is: 3831170
new weight for 0 is: -21
new weight for x264 [info]: using cpu capabilities: none!
1 is: -3831042
new weight for 2 is: 3831170
new weight for 0 is: -21
new weight for 1 is: -3831042
new weight for 2 is: 3831170
new weight for 0 is: -21
new weight for 1 is: 4194281
new weight for 2 is: -4194153
new weight for 0 is: -21
new weight for 1 is: 4194321
new weight for 2 is: -4194193
new weight for 0 is: -21
new weight for 1 is: -3813145
new weight for 2 is: 3813273
new weight for 0 is: -21
new weight for 1 is: -3813185
new weight for 2 is: 3813313
new weight for 0 is: -21
new weight for 1 is: 4194284
new weight for 2 is: -4194156
new weight for 0 is: -21
new weight for 1 is: 4194324
new weight for 2 is: -4194196
new weight for 0 is: -21
new weight for 1 is: 4194324
new weight for 2 is: -4194196
new weight for 0 is: -21
new weight for 1 is: 4194324
new weight for 2 is: -4194196
new weight for 0 is: -21
new weight for 1 is: -3821941
new weight for 2 is: 3822069
new weight for 0 is: -21
new weight for 1 is: -3821981
new weight for 2 is: 3822109
new weight for 0 is: -21
new weight for 1 is: 4194300
new weight for 2 is: -4194172
new weight for 0 is: -21
new weight for 1 is: 4194340
new weight for 2 is: -4194212
new weight for 0 is: -21
new weight for 1 is: 4194340
new weight for 2 is: -4194212
new weight for 0 is: -21
new weight for 1 is: 4194340
new weight for 2 is: -4194212
new weight for 0 is: -21
new weight for 1 is: -151263440
new weight for 2 is: 151263568
new weight for 0 is: -21
new weight for 1 is: -151263480
new weight for 2 is: 151263608
new weight for 0 is: -21
new weight for 1 is: -151263480
new weight for 2 is: 151263608
new weight for 0 is: -21
new weight for 1 is: -151263480
new weight for 2 is: 151263608
new weight for 0 is: -21
new weight for 1 is: 4194316
new weight for 2 is: -4194188
new weight for 0 is: -21
new weight for 1 is: -147771374
new weight for 2 is: 147771502
new weight for 0 is: -21
new weight for 1 is: -147771414
new weight for 2 is: 147771542
new weight for 0 is: -21
new weight for 1 is: -147771414
new weight for 2 is: 147771542
new weight for 0 is: -21
new weight for 1 is: 4121585
new weight for 2 is: -4121457
new weight for 0 is: -21
new weight for 1 is: 4121625
new weight for 2 is: -4121497
new weight for 0 is: -21
new weight for 1 is: -147771378
new weight for 2 is: 147771506
new weight for 0 is: -21
new weight for 1 is: 3737479
new weight for 2 is: -3737358
new weight for 0 is: -21
new weight for 1 is: 3737519
new weight for 2 is: -3737398
new weight for 0 is: -21
new weight for 1 is: 3737519
new weight for 2 is: -3737398
new weight for 0 is: -21
new weight for 1 is: 3737519
new weight for 2 is: -3737398
new weight for 0 is: -21
new weight for 1 is: -136410193
new weight for 2 is: 136410265
new weight for 0 is: -21
new weight for 1 is: -136410233
new weight for 2 is: 136410305
new weight for 0 is: -21
new weight for 1 is: -136410233
new weight for 2 is: 136410305
new weight for 0 is: -21
new weight for 1 is: 3896483
new weight for 2 is: -3896397
new weight for 0 is: -21
new weight for 1 is: 3896523
new weight for 2 is: -3896437
new weight for 0 is: -21
new weight for 1 is: 3896523
new weight for 2 is: -3896437
new weight for 0 is: -21
new weight for 1 is: 3896523
new weight for 2 is: -3896437
new weight for 0 is: -21
new weight for 1 is: -147771316
new weight for 2 is: 147771444
new weight for 0 is: -21
new weight for 1 is: -147771356
new weight for 2 is: 147771484
new weight for 0 is: -21
new weight for 1 is: -147771356
new weight for 2 is: 147771484
new weight for 0 is: -21
new weight for 1 is: 4194326
new weight for 2 is: -4194198
new weight for 0 is: -21
new weight for 1 is: 4194366
new weight for 2 is: -4194238
new weight for 0 is: -21
new weight for 1 is: -3766504
new weight for 2 is: 3766584
new weight for 0 is: -21
new weight for 1 is: -3766544
new weight for 2 is: 3766624
new weight for 0 is: -21
new weight for 1 is: 3895466
new weight for 2 is: -3895354
new weight for 0 is: -21
new weight for 1 is: 3895506
new weight for 2 is: -3895394
new weight for 0 is: -21
new weight for 1 is: -147771376
new weight for 2 is: 147771504
new weight for 0 is: -21
new weight for 1 is: -147771416
new weight for 2 is: 147771544
new weight for 0 is: -21
new weight for 1 is: 4194339
new weight for 2 is: -4194211
new weight for 0 is: -21
new weight for 1 is: 4194379
new weight for 2 is: -4194251
new weight for 0 is: -21
new weight for 1 is: 4194379
new weight for 2 is: -4194251
new weight for 0 is: -21
new weight for 1 is: 4194379
new weight for 2 is: -4194251
new weight for 0 is: -21
new weight for 1 is: 4194379
new weight for 2 is: -4194251
new weight for 0 is: -21
new weight for 1 is: 4194379
new weight for 2 is: -4194251
new weight for 0 is: -21
new weight for 1 is: 4194379
new weight for 2 is: -4194251
new weight for 0 is: -21
new weight for 1 is: 4194379
new weight for 2 is: -4194251
new weight for 0 is: -21
new weight for 1 is: 4194379
new weight for 2 is: -4194251
new weight for 0 is: -21
new weight for 1 is: 4194379
new weight for 2 is: -4194251
new weight for 0 is: -21
new weight for 1 is: -3848369
new weight for 2 is: 3848435
new weight for 0 is: -21
new weight for 1 is: 4194284
new weight for 2 is: -4194156
new weight for 0 is: -21
new weight for 1 is: 4194324
new weight for 2 is: -4194196
new weight for 0 is: -21
new weight for 1 is: 4194324
new weight for 2 is: -4194196
new weight for 0 is: -21
new weight for 1 is: 4194324
new weight for 2 is: -4194196
new weight for 0 is: -21
new weight for 1 is: 4194324
new weight for 2 is: -4194196
new weight for 0 is: -21
new weight for 1 is: 4194324
new weight for 2 is: -4194196
new weight for 0 is: -21
new weight for 1 is: -147771374
new weight for 2 is: 147771502
new weight for 0 is: -21
new weight for 1 is: -147771414
new weight for 2 is: 147771542
new weight for 0 is: -21
new weight for 1 is: -147771414
new weight for 2 is: 147771542
new weight for 0 is: -21
new weight for 1 is: 3811176
new weight for 2 is: -3811048
new weight for 0 is: -21
new weight for 1 is: 3811216
new weight for 2 is: -3811088
new weight for 0 is: -21
new weight for 1 is: -147771375
new weight for 2 is: 147771503
new weight for 0 is: -21
new weight for 1 is: -147771414
new weight for 2 is: 147771542
new weight for 0 is: -21
new weight for 1 is: -147771414
new weight for 2 is: 147771542
new weight for 0 is: -21
new weight for 1 is: 3807498
new weight for 2 is: -3807412
new weight for 0 is: -21
new weight for 1 is: 3807538
new weight for 2 is: -3807452
new weight for 0 is: -21
new weight for 1 is: 3807538
new weight for 2 is: -3807452
new weight for 0 is: -21
new weight for 1 is: 3807538
new weight for 2 is: -3807452
new weight for 0 is: -21
new weight for 1 is: -147771374
new weight for 2 is: 147771502
new weight for 0 is: -21
new weight for 1 is: 3807102
new weight for 2 is: -3807028
new weight for 0 is: -21
new weight for 1 is: 3807142
new weight for 2 is: -3807068
new weight for 0 is: -21
new weight for 1 is: 3807142
new weight for 2 is: -3807068
new weight for 0 is: -21
new weight for 1 is: 3807142
new weight for 2 is: -3807068
new weight for 0 is: -21
new weight for 1 is: -147771372
new weight for 2 is: 147771500
new weight for 0 is: -21
new weight for 1 is: -147771364
new weight for 2 is: 147771492
new weight for 0 is: -21
new weight for 1 is: -147771364
new weight for 2 is: 147771492
new weight for 0 is: -21
new weight for 1 is: 3810408
new weight for 2 is: -3810280
new weight for 0 is: -21
new weight for 1 is: 3810448
new weight for 2 is: -3810320
new weight for 0 is: -21
new weight for 1 is: -4241777
new weight for 2 is: 4241843
new weight for 0 is: -21
new weight for 1 is: 3810216
new weight for 2 is: -3810088
new weight for 0 is: -21
new weight for 1 is: 3810256
new weight for 2 is: -3810128
new weight for 0 is: -21
new weight for 1 is: -4307313
new weight for 2 is: 4307379
new weight for 0 is: -21
new weight for 1 is: -4307353
new weight for 2 is: 4307419
new weight for 0 is: -21
new weight for 1 is: 3810024
new weight for 2 is: -3809896
new weight for 0 is: -21
new weight for 1 is: 3810064
new weight for 2 is: -3809936
new weight for 0 is: -21
new weight for 1 is: 3896501
new weight for 2 is: -3896373
new weight for 0 is: -21
new weight for 1 is: 3896501
new weight for 2 is: -3896373
new weight for 0 is: -21
new weight for 1 is: -147771374
new weight for 2 is: 147771502
new weight for 0 is: -21
new weight for 1 is: 3809832
new weight for 2 is: -3809704
new weight for 0 is: -21
new weight for 1 is: 3809872
new weight for 2 is: -3809744
new weight for 0 is: -21
new weight for 1 is: -4438904
new weight for 2 is: 4439032
new weight for 0 is: -21
new weight for 1 is: -4536682
new weight for 2 is: 4536802
new weight for 0 is: -21
new weight for 1 is: 3809581
new weight for 2 is: -3809453
new weight for 0 is: -21
new weight for 1 is: 3809621
new weight for 2 is: -3809493
new weight for 0 is: -21
new weight for 1 is: -4504504
new weight for 2 is: 4504632
new weight for 0 is: -21
new weight for 1 is: 3807730
new weight for 2 is: -3807602
new weight for 0 is: -21
new weight for 1 is: 3807770
new weight for 2 is: -3807642
new weight for 0 is: -21
new weight for 1 is: -4635313
new weight for 2 is: 4635379
new weight for 0 is: -21
new weight for 1 is: 3808648
new weight for 2 is: -3808552
new weight for 0 is: -21
new weight for 1 is: 3808688
new weight for 2 is: -3808592
new weight for 0 is: -21
new weight for 1 is: -4798978
new weight for 2 is: 4799098
new weight for 0 is: -21
new weight for 1 is: -4799018
new weight for 2 is: 4799138
new weight for 0 is: -21
new weight for 1 is: -4799018
new weight for 2 is: 4799138
new weight for 0 is: -21
new weight for 1 is: -4799018
new weight for 2 is: 4799138
new weight for 0 is: -21
new weight for 1 is: 3808228
new weight for 2 is: -3808144
new weight for 0 is: -21
new weight for 1 is: 3808268
new weight for 2 is: -3808184
new weight for 0 is: -21
new weight for 1 is: -147771375
new weight for 2 is: 147771503
new weight for 0 is: -21
new weight for 1 is: -147771415
new weight for 2 is: 147771543
new weight for 0 is: -21
new weight for 1 is: -147771415
new weight for 2 is: 147771543
new weight for 0 is: -21
new weight for 1 is: -147771415
new weight for 2 is: 147771543
new weight for 0 is: -21
new weight for 1 is: -147771415
new weight for 2 is: 147771543
new weight for 0 is: -21
new weight for 1 is: 3806426
new weight for 2 is: -3806298
new weight for 0 is: -21
new weight for 1 is: 3806466
new weight for 2 is: -3806338
new weight for 0 is: -21
new weight for 1 is: 3806466
new weight for 2 is: -3806338
new weight for 0 is: -21
new weight for 1 is: 3806466
new weight for 2 is: -3806338
new weight for 0 is: -21
new weight for 1 is: -3659698
new weight for 2 is: 3659818
new weight for 0 is: -21
new weight for 1 is: -3659738
new weight for 2 is: 3659858
new weight for 0 is: -21
new weight for 1 is: 3805980
new weight for 2 is: -3805852
new weight for 0 is: -21
new weight for 1 is: 3806020
new weight for 2 is: -3805892
new weight for 0 is: -21
new weight for 1 is: 3806020
new weight for 2 is: -3805892
new weight for 0 is: -21
new weight for 1 is: 3806020
new weight for 2 is: -3805892
new weight for 0 is: -21
new weight for 1 is: -4897585
new weight for 2 is: 4897651
new weight for 0 is: -21
new weight for 1 is: -4897625
new weight for 2 is: 4897691
new weight for 0 is: -21
new weight for 1 is: 3805554
new weight for 2 is: -3805426
new weight for 0 is: -21
new weight for 1 is: 3805594
new weight for 2 is: -3805466
new weight for 0 is: -21
new weight for 1 is: 3805594
new weight for 2 is: -3805466
new weight for 0 is: -21
new weight for 1 is: 3805594
new weight for 2 is: -3805466
new weight for 0 is: -21
new weight for 1 is: -151247643
new weight for 2 is: 151247771
new weight for 0 is: -21
new weight for 1 is: 3805480
new weight for 2 is: -3805352
new weight for 0 is: -21
new weight for 1 is: 3805520
new weight for 2 is: -3805392
new weight for 0 is: -21
new weight for 1 is: -5094321
new weight for 2 is: 5094387
new weight for 0 is: -21
new weight for 1 is: -5094361
new weight for 2 is: 5094427
new weight for 0 is: -21
new weight for 1 is: 3803378
new weight for 2 is: -3803250
new weight for 0 is: -21
new weight for 1 is: 3803418
new weight for 2 is: -3803290
new weight for 0 is: -21
new weight for 1 is: -151253270
new weight for 2 is: 151253366
new weight for 0 is: -21
new weight for 1 is: -147771380
new weight for 2 is: 147771508
new weight for 0 is: -21
new weight for 1 is: -147771380
new weight for 2 is: 147771508
new weight for 0 is: -21
new weight for 1 is: 3802494
new weight for 2 is: -3802366
new weight for 0 is: -21
new weight for 1 is: 3802534
new weight for 2 is: -3802406
new weight for 0 is: -21
new weight for 1 is: 3802534
new weight for 2 is: -3802406
new weight for 0 is: -21
new weight for 1 is: 3802534
new weight for 2 is: -3802406
new weight for 0 is: -21
new weight for 1 is: 3802534
new weight for 2 is: -3802406
new weight for 0 is: -21
new weight for 1 is: 3802534
new weight for 2 is: -3802406
new weight for 0 is: -21
new weight for 1 is: 3802534
new weight for 2 is: -3802406
new weight for 0 is: -21
new weight for 1 is: 3802534
new weight for 2 is: -3802406
new weight for 0 is: -21
new weight for 1 is: -5225521
new weight for 2 is: 5225587
new weight for 0 is: -21
new weight for 1 is: -5323690
new weight for 2 is: 5323810
new weight for 0 is: -21
new weight for 1 is: 3801628
new weight for 2 is: -3801500
new weight for 0 is: -21
new weight for 1 is: 3801668
new weight for 2 is: -3801540
new weight for 0 is: -21
new weight for 1 is: 3801668
new weight for 2 is: -3801540
new weight for 0 is: -21
new weight for 1 is: 3801668
new weight for 2 is: -3801540
new weight for 0 is: -21
new weight for 1 is: -3659922
new weight for 2 is: 3660010
new weight for 0 is: -21
new weight for 1 is: -3659962
new weight for 2 is: 3660050
new weight for 0 is: -21
new weight for 1 is: 3800957
new weight for 2 is: -3800845
new weight for 0 is: -21
new weight for 1 is: 3800997
new weight for 2 is: -3800885
new weight for 0 is: -21
new weight for 1 is: 3800997
new weight for 2 is: -3800885
new weight for 0 is: -21
new weight for 1 is: 3800997
new weight for 2 is: -3800885
new weight for 0 is: -21
new weight for 1 is: -5357112
new weight for 2 is: 5357240
new weight for 0 is: -21
new weight for 1 is: 3799218
new weight for 2 is: -3799090
new weight for 0 is: -21
new weight for 1 is: 3799258
new weight for 2 is: -3799130
new weight for 0 is: -21
new weight for 1 is: 3799258
new weight for 2 is: -3799130
new weight for 0 is: -21
new weight for 1 is: 3799258
new weight for 2 is: -3799130
new weight for 0 is: -21
new weight for 1 is: 3799258
new weight for 2 is: -3799130
new weight for 0 is: -21
new weight for 1 is: -147771372
new weight for 2 is: 147771500
new weight for 0 is: -21
new weight for 1 is: 3797852
new weight for 2 is: -3797724
new weight for 0 is: -21
new weight for 1 is: 3797892
new weight for 2 is: -3797764
new weight for 0 is: -21
new weight for 1 is: -137175024
new weight for 2 is: 137175152
new weight for 0 is: -21
new weight for 1 is: -137175064
new weight for 2 is: 137175192
new weight for 0 is: -21
new weight for 1 is: -3660130
new weight for 2 is: 3660242
new weight for 0 is: -21
new weight for 1 is: -3660130
new weight for 2 is: 3660242
new weight for 0 is: -21
new weight for 1 is: -137175064
new weight for 2 is: 137175192
new weight for 0 is: -21
new weight for 1 is: 3794034
new weight for 2 is: -3793908
new weight for 0 is: -21
new weight for 1 is: 3794074
new weight for 2 is: -3793948
new weight for 0 is: -21
new weight for 1 is: 3794074
new weight for 2 is: -3793948
new weight for 0 is: -21
new weight for 1 is: 3794074
new weight for 2 is: -3793948
new weight for 0 is: -21
new weight for 1 is: 3797584
new weight for 2 is: -3797456
new weight for 0 is: -21
new weight for 1 is: 3797584
new weight for 2 is: -3797456
new weight for 0 is: -21
new weight for 1 is: -151247643
new weight for 2 is: 151247771
new weight for 0 is: -21
new weight for 1 is: -151247683
new weight for 2 is: 151247811
new weight for 0 is: -21
new weight for 1 is: -151247683
new weight for 2 is: 151247811
new weight for 0 is: -21
new weight for 1 is: 3794409
new weight for 2 is: -3794281
new weight for 0 is: -21
new weight for 1 is: 3794449
new weight for 2 is: -3794321
new weight for 0 is: -21
new weight for 1 is: 3794449
new weight for 2 is: -3794321
new weight for 0 is: -21
new weight for 1 is: 3794449
new weight for 2 is: -3794321
new weight for 0 is: -21
new weight for 1 is: -5619448
new weight for 2 is: 5619576
new weight for 0 is: -21
new weight for 1 is: 3793768
new weight for 2 is: -3793640
new weight for 0 is: -21
new weight for 1 is: 3793808
new weight for 2 is: -3793680
new weight for 0 is: -21
new weight for 1 is: -137262260
new weight for 2 is: 137262372
new weight for 0 is: -21
new weight for 1 is: 4194276
new weight for 2 is: -4194148
new weight for 0 is: -21
new weight for 1 is: 4194316
new weight for 2 is: -4194188
new weight for 0 is: -21
new weight for 1 is: -153346870
new weight for 2 is: 153346990
new weight for 0 is: -21
new weight for 1 is: -147771412
new weight for 2 is: 147771540
new weight for 0 is: -21
new weight for 1 is: -147771412
new weight for 2 is: 147771540
new weight for 0 is: -21
new weight for 1 is: 4194284
new weight for 2 is: -4194156
new weight for 0 is: -21
new weight for 1 is: 4194324
new weight for 2 is: -4194196
new weight for 0 is: -21
new weight for 1 is: -151242374
new weight for 2 is: 151242470
new weight for 0 is: -21
new weight for 1 is: -151242414
new weight for 2 is: 151242510
new weight for 0 is: -21
new weight for 1 is: -151242414
new weight for 2 is: 151242510
new weight for 0 is: -21
new weight for 1 is: -151242414
new weight for 2 is: 151242510
new weight for 0 is: -21
new weight for 1 is: -151242414
new weight for 2 is: 151242510
new weight for 0 is: -21
new weight for 1 is: 4194284
new weight for 2 is: -4194156
new weight for 0 is: -21
new weight for 1 is: 4194324
new weight for 2 is: -4194196
new weight for 0 is: -21
new weight for 1 is: 4194324
new weight for 2 is: -4194196
new weight for 0 is: -21
new weight for 1 is: -153276543
new weight for 2 is: 153276615
new weight for 0 is: -21
new weight for 1 is: -153276583
new weight for 2 is: 153276655
new weight for 0 is: -21
new weight for 1 is: 4194285
new weight for 2 is: -4194157
new weight for 0 is: -21
new weight for 1 is: 4194325
new weight for 2 is: -4194197
new weight for 0 is: -21
new weight for 1 is: -151242506
new weight for 2 is: 151242626
new weight for 0 is: -21
new weight for 1 is: -151242546
new weight for 2 is: 151242666
new weight for 0 is: -21
new weight for 1 is: 4194280
new weight for 2 is: -4194152
new weight for 0 is: -21
new weight for 1 is: -153294207
new weight for 2 is: 153294279
new weight for 0 is: -21
new weight for 1 is: 4194280
new weight for 2 is: -4194152
new weight for 0 is: -21
new weight for 1 is: 4194320
new weight for 2 is: -4194192
new weight for 0 is: -21
new weight for 1 is: -153294655
new weight for 2 is: 153294727
new weight for 0 is: -21
new weight for 1 is: 4194282
new weight for 2 is: -4194154
new weight for 0 is: -21
new weight for 1 is: 4194322
new weight for 2 is: -4194194
new weight for 0 is: -21
new weight for 1 is: 3735381
new weight for 2 is: -3735285
new weight for 0 is: -21
new weight for 1 is: 3735381
new weight for 2 is: -3735285
new weight for 0 is: -21
new weight for 1 is: -147771373
new weight for 2 is: 147771501
new weight for 0 is: -21
new weight for 1 is: 4194284
new weight for 2 is: -4194156
new weight for 0 is: -21
new weight for 1 is: 4194324
new weight for 2 is: -4194196
new weight for 0 is: -21
new weight for 1 is: -153319759
new weight for 2 is: 153319879
new weight for 0 is: -21
new weight for 1 is: -153319799
new weight for 2 is: 153319919
new weight for 0 is: -21
new weight for 1 is: 4194284
new weight for 2 is: -4194156
new weight for 0 is: -21
new weight for 1 is: -5840642
new weight for 2 is: 5840762
new weight for 0 is: -21
new weight for 1 is: 4194292
new weight for 2 is: -4194164
new weight for 0 is: -21
new weight for 1 is: 4194332
new weight for 2 is: -4194204
new weight for 0 is: -21
new weight for 1 is: 4194332
new weight for 2 is: -4194204
new weight for 0 is: -21
new weight for 1 is: -3867396
new weight for 2 is: 3867468
new weight for 0 is: -21
new weight for 1 is: -3867436
new weight for 2 is: 3867508
new weight for 0 is: -21
new weight for 1 is: -161947623
new weight for 2 is: 161947695
new weight for 0 is: -21
new weight for 1 is: -161947623
new weight for 2 is: 161947695
new weight for 0 is: -21
new weight for 1 is: -161947623
new weight for 2 is: 161947695
new weight for 0 is: -21
new weight for 1 is: -161947623
new weight for 2 is: 161947695
new weight for 0 is: -21
new weight for 1 is: -161947623
new weight for 2 is: 161947695
new weight for 0 is: -21
new weight for 1 is: -161947623
new weight for 2 is: 161947695
new weight for 0 is: -21
new weight for 1 is: -161947623
new weight for 2 is: 161947695
new weight for 0 is: -21
new weight for 1 is: -161853085
new weight for 2 is: 161853165
new weight for 0 is: -21
new weight for 1 is: -161853085
new weight for 2 is: 161853165
new weight for 0 is: -21
new weight for 1 is: -161846020
new weight for 2 is: 161846148
new weight for 0 is: -21
new weight for 1 is: -161846020
new weight for 2 is: 161846148
new weight for 0 is: -21
new weight for 1 is: -161846404
new weight for 2 is: 161846532
new weight for 0 is: -21
new weight for 1 is: -161846404
new weight for 2 is: 161846532
new weight for 0 is: -21
new weight for 1 is: -161846596
new weight for 2 is: 161846724
new weight for 0 is: -21
new weight for 1 is: -161846596
new weight for 2 is: 161846724
new weight for 0 is: -21
new weight for 1 is: -161846788
new weight for 2 is: 161846916
new weight for 0 is: -21
new weight for 1 is: -161846788
new weight for 2 is: 161846916
new weight for 0 is: -21
new weight for 1 is: -161846980
new weight for 2 is: 161847108
new weight for 0 is: -21
new weight for 1 is: -161846980
new weight for 2 is: 161847108
new weight for 0 is: -21
new weight for 1 is: -161847172
new weight for 2 is: 161847300
new weight for 0 is: -21
new weight for 1 is: -161847172
new weight for 2 is: 161847300
new weight for 0 is: -21
new weight for 1 is: -161847364
new weight for 2 is: 161847492
new weight for 0 is: -21
new weight for 1 is: -161847364
new weight for 2 is: 161847492
new weight for 0 is: -21
new weight for 1 is: -161847556
new weight for 2 is: 161847684
new weight for 0 is: -21
new weight for 1 is: -161847556
new weight for 2 is: 161847684
new weight for 0 is: -21
new weight for 1 is: -161847748
new weight for 2 is: 161847876
new weight for 0 is: -21
new weight for 1 is: -161847748
new weight for 2 is: 161847876
new weight for 0 is: -21
new weight for 1 is: -161847940
new weight for 2 is: 161848068
new weight for 0 is: -21
new weight for 1 is: -161847940
new weight for 2 is: 161848068
new weight for 0 is: -21
new weight for 1 is: -161848132
new weight for 2 is: 161848260
new weight for 0 is: -21
new weight for 1 is: -161848132
new weight for 2 is: 161848260
new weight for 0 is: -21
new weight for 1 is: -161848324
new weight for 2 is: 161848452
new weight for 0 is: -21
new weight for 1 is: -161848324
new weight for 2 is: 161848452
new weight for 0 is: -21
new weight for 1 is: -161848516
new weight for 2 is: 161848644
new weight for 0 is: -21
new weight for 1 is: -161848516
new weight for 2 is: 161848644
new weight for 0 is: -21
new weight for 1 is: -161848708
new weight for 2 is: 161848836
new weight for 0 is: -21
new weight for 1 is: -161848708
new weight for 2 is: 161848836
new weight for 0 is: -21
new weight for 1 is: -161848900
new weight for 2 is: 161849028
new weight for 0 is: -21
new weight for 1 is: -161848900
new weight for 2 is: 161849028
new weight for 0 is: -21
new weight for 1 is: -161849092
new weight for 2 is: 161849220
new weight for 0 is: -21
new weight for 1 is: -161849092
new weight for 2 is: 161849220
new weight for 0 is: -21
new weight for 1 is: -161849284
new weight for 2 is: 161849412
new weight for 0 is: -21
new weight for 1 is: -161849284
new weight for 2 is: 161849412
new weight for 0 is: -21
new weight for 1 is: -161849476
new weight for 2 is: 161849604
new weight for 0 is: -21
new weight for 1 is: -161849476
new weight for 2 is: 161849604
new weight for 0 is: -21
new weight for 1 is: -161849668
new weight for 2 is: 161849796
new weight for 0 is: -21
new weight for 1 is: -161849668
new weight for 2 is: 161849796
new weight for 0 is: -21
new weight for 1 is: -161849860
new weight for 2 is: 161849988
new weight for 0 is: -21
new weight for 1 is: -161849860
new weight for 2 is: 161849988
new weight for 0 is: -21
new weight for 1 is: -161850052
new weight for 2 is: 161850180
new weight for 0 is: -21
new weight for 1 is: -161850052
new weight for 2 is: 161850180
new weight for 0 is: -21
new weight for 1 is: -161850308
new weight for 2 is: 161850436
new weight for 0 is: -21
new weight for 1 is: -161850308
new weight for 2 is: 161850436
new weight for 0 is: -21
new weight for 1 is: -161850500
new weight for 2 is: 161850628
new weight for 0 is: -21
new weight for 1 is: -161850500
new weight for 2 is: 161850628
new weight for 0 is: -21
new weight for 1 is: -161850692
new weight for 2 is: 161850820
new weight for 0 is: -21
new weight for 1 is: -161850692
new weight for 2 is: 161850820
new weight for 0 is: -21
new weight for 1 is: -161850884
new weight for 2 is: 161851012
new weight for 0 is: -21
new weight for 1 is: -161850884
new weight for 2 is: 161851012
new weight for 0 is: -21
new weight for 1 is: -161850884
new weight for 2 is: 161851012
new weight for 0 is: -21
new weight for 1 is: -161850884
new weight for 2 is: 161851012
new weight for 0 is: -21
new weight for 1 is: -161851076
new weight for 2 is: 161851204
new weight for 0 is: -21
new weight for 1 is: -161851076
new weight for 2 is: 161851204
new weight for 0 is: -21
new weight for 1 is: -161851268
new weight for 2 is: 161851396
new weight for 0 is: -21
new weight for 1 is: -161851268
new weight for 2 is: 161851396
new weight for 0 is: -21
new weight for 1 is: -161851460
new weight for 2 is: 161851588
new weight for 0 is: -21
new weight for 1 is: -161851460
new weight for 2 is: 161851588
new weight for 0 is: -21
new weight for 1 is: -161851652
new weight for 2 is: 161851780
new weight for 0 is: -21
new weight for 1 is: -161851652
new weight for 2 is: 161851780
new weight for 0 is: -21
new weight for 1 is: -161851844
new weight for 2 is: 161851972
new weight for 0 is: -21
new weight for 1 is: -161851844
new weight for 2 is: 161851972
new weight for 0 is: -21
new weight for 1 is: -161852036
new weight for 2 is: 161852164
new weight for 0 is: -21
new weight for 1 is: -161852036
new weight for 2 is: 161852164
new weight for 0 is: -21
new weight for 1 is: -161852228
new weight for 2 is: 161852356
new weight for 0 is: -21
new weight for 1 is: -161852228
new weight for 2 is: 161852356
new weight for 0 is: -21
new weight for 1 is: -161852420
new weight for 2 is: 161852548
new weight for 0 is: -21
new weight for 1 is: -161852420
new weight for 2 is: 161852548
new weight for 0 is: -21
new weight for 1 is: -161852612
new weight for 2 is: 161852740
new weight for 0 is: -21
new weight for 1 is: -161852612
new weight for 2 is: 161852740
new weight for 0 is: -21
new weight for 1 is: -161852804
new weight for 2 is: 161852932
new weight for 0 is: -21
new weight for 1 is: -161852804
new weight for 2 is: 161852932
new weight for 0 is: -21
new weight for 1 is: -161852804
new weight for 2 is: 161852932
new weight for 0 is: -21
new weight for 1 is: -161852804
new weight for 2 is: 161852932
new weight for 0 is: -21
new weight for 1 is: -161976471
new weight for 2 is: 161976559
new weight for 0 is: -21
new weight for 1 is: -161976471
new weight for 2 is: 161976559
new weight for 0 is: -21
new weight for 1 is: -161976471
new weight for 2 is: 161976559
new weight for 0 is: -21
new weight for 1 is: -161976471
new weight for 2 is: 161976559
new weight for 0 is: -21
new weight for 1 is: 4194340
new weight for 2 is: -4194212
new weight for 0 is: -21
new weight for 1 is: 4194380
new weight for 2 is: -4194252
new weight for 0 is: -21
new weight for 1 is: -16953794
new weight for 2 is: 16953914
new weight for 0 is: -21
new weight for 1 is: 4194279
new weight for 2 is: -4194151
new weight for 0 is: -21
new weight for 1 is: 4194319
new weight for 2 is: -4194191
new weight for 0 is: -21
new weight for 1 is: 4194319
new weight for 2 is: -4194191
new weight for 0 is: -21
new weight for 1 is: 4194319
new weight for 2 is: -4194191
new weight for 0 is: -21
new weight for 1 is: 4194319
new weight for 2 is: -4194191
new weight for 0 is: -21
new weight for 1 is: 4194319
new weight for 2 is: -4194191
new weight for 0 is: -21
new weight for 1 is: 4194319
new weight for 2 is: -4194191
new weight for 0 is: -21
new weight for 1 is: 4194319
new weight for 2 is: -4194191
new weight for 0 is: -21
new weight for 1 is: -151241802
new weight for 2 is: 151241922
new weight for 0 is: -21
new weight for 1 is: -151241842
new weight for 2 is: 151241962
new weight for 0 is: -21
new weight for 1 is: -164411984
new weight for 2 is: 164412064
new weight for 0 is: -21
new weight for 1 is: -164410820
new weight for 2 is: 164410948
new weight for 0 is: -21
new weight for 1 is: -164410820
new weight for 2 is: 164410948
new weight for 0 is: -21
new weight for 1 is: -164410820
new weight for 2 is: 164410948
new weight for 0 is: -21
new weight for 1 is: -164410820
new weight for 2 is: 164410948
new weight for 0 is: -21
new weight for 1 is: -164411012
new weight for 2 is: 164411140
new weight for 0 is: -21
new weight for 1 is: -164411204
new weight for 2 is: 164411332
new weight for 0 is: -21
new weight for 1 is: -164411204
new weight for 2 is: 164411332
new weight for 0 is: -21
new weight for 1 is: -164411204
new weight for 2 is: 164411332
new weight for 0 is: -21
new weight for 1 is: -164411204
new weight for 2 is: 164411332
new weight for 0 is: -21
new weight for 1 is: -164411396
new weight for 2 is: 164411524
new weight for 0 is: -21
new weight for 1 is: -164411396
new weight for 2 is: 164411524
new weight for 0 is: -21
new weight for 1 is: -164411588
new weight for 2 is: 164411716
new weight for 0 is: -21
new weight for 1 is: -164411588
new weight for 2 is: 164411716
new weight for 0 is: -21
new weight for 1 is: -164411588
new weight for 2 is: 164411716
new weight for 0 is: -21
new weight for 1 is: -164411588
new weight for 2 is: 164411716
new weight for 0 is: -21
new weight for 1 is: -164412775
new weight for 2 is: 164412871
new weight for 0 is: -21
new weight for 1 is: -164412775
new weight for 2 is: 164412871
new weight for 0 is: -21
new weight for 1 is: -164412228
new weight for 2 is: 164412356
new weight for 0 is: -21
new weight for 1 is: -164412228
new weight for 2 is: 164412356
new weight for 0 is: -21
new weight for 1 is: -164412420
new weight for 2 is: 164412548
new weight for 0 is: -21
new weight for 1 is: -164412420
new weight for 2 is: 164412548
new weight for 0 is: -21
new weight for 1 is: -164412420
new weight for 2 is: 164412548
new weight for 0 is: -21
new weight for 1 is: -164412420
new weight for 2 is: 164412548
new weight for 0 is: -21
new weight for 1 is: -164413479
new weight for 2 is: 164413575
new weight for 0 is: -21
new weight for 1 is: -164413479
new weight for 2 is: 164413575
new weight for 0 is: -21
new weight for 1 is: -164413392
new weight for 2 is: 164413472
new weight for 0 is: -21
new weight for 1 is: -164413392
new weight for 2 is: 164413472
new weight for 0 is: -21
new weight for 1 is: -164412932
new weight for 2 is: 164413060
new weight for 0 is: -21
new weight for 1 is: -164412932
new weight for 2 is: 164413060
new weight for 0 is: -21
new weight for 1 is: -164413124
new weight for 2 is: 164413252
new weight for 0 is: -21
new weight for 1 is: -164413124
new weight for 2 is: 164413252
new weight for 0 is: -21
new weight for 1 is: -164413124
new weight for 2 is: 164413252
new weight for 0 is: -21
new weight for 1 is: -164413124
new weight for 2 is: 164413252
new weight for 0 is: -21
new weight for 1 is: 4194282
new weight for 2 is: -4194154
new weight for 0 is: -21
new weight for 1 is: 4194322
new weight for 2 is: -4194194
new weight for 0 is: -21
new weight for 1 is: -151243190
new weight for 2 is: 151243302
new weight for 0 is: -21
new weight for 1 is: -151243230
new weight for 2 is: 151243342
new weight for 0 is: -21
new weight for 1 is: -164514247
new weight for 2 is: 164514351
new weight for 0 is: -21
new weight for 1 is: -164514247
new weight for 2 is: 164514351
new weight for 0 is: -21
new weight for 1 is: -164418867
new weight for 2 is: 164418995
new weight for 0 is: -21
new weight for 1 is: -164419012
new weight for 2 is: 164419140
new weight for 0 is: -21
new weight for 1 is: -164419012
new weight for 2 is: 164419140
new weight for 0 is: -21
new weight for 1 is: -164419012
new weight for 2 is: 164419140
new weight for 0 is: -21
new weight for 1 is: -164419012
new weight for 2 is: 164419140
new weight for 0 is: -21
new weight for 1 is: -164419204
new weight for 2 is: 164419332
new weight for 0 is: -21
new weight for 1 is: -164419204
new weight for 2 is: 164419332
new weight for 0 is: -21
new weight for 1 is: -164419204
new weight for 2 is: 164419332
new weight for 0 is: -21
new weight for 1 is: -164419396
new weight for 2 is: 164419524
new weight for 0 is: -21
new weight for 1 is: -164419396
new weight for 2 is: 164419524
new weight for 0 is: -21
new weight for 1 is: 4194300
new weight for 2 is: -4194172
new weight for 0 is: -21
new weight for 1 is: 4194340
new weight for 2 is: -4194212
new weight for 0 is: -21
new weight for 1 is: -143561844
new weight for 2 is: 143561948
new weight for 0 is: -21
new weight for 1 is: -143561884
new weight for 2 is: 143561988
new weight for 0 is: -21
new weight for 1 is: -143561884
new weight for 2 is: 143561988
new weight for 0 is: -21
new weight for 1 is: 3977986
new weight for 2 is: -3977874
new weight for 0 is: -21
new weight for 1 is: 3978026
new weight for 2 is: -3977914
new weight for 0 is: -21
new weight for 1 is: 3978026
new weight for 2 is: -3977914
new weight for 0 is: -21
new weight for 1 is: 3978026
new weight for 2 is: -3977914
new weight for 0 is: -21
new weight for 1 is: 3978026
new weight for 2 is: -3977914
new weight for 0 is: -21
new weight for 1 is: -3586469
new weight for 2 is: 3586577
new weight for 0 is: -21
new weight for 1 is: -3586509
new weight for 2 is: 3586617
new weight for 0 is: -21
new weight for 1 is: 4194282
new weight for 2 is: -4194154
new weight for 0 is: -21
new weight for 1 is: 4194322
new weight for 2 is: -4194194
new weight for 0 is: -21
new weight for 1 is: 4194322
new weight for 2 is: -4194194
new weight for 0 is: -21
new weight for 1 is: 4194322
new weight for 2 is: -4194194
new weight for 0 is: -21
new weight for 1 is: -140623857
new weight for 2 is: 140623985
new weight for 0 is: -21
new weight for 1 is: -140623897
new weight for 2 is: 140624025
new weight for 0 is: -21
new weight for 1 is: 3527340
new weight for 2 is: -3527212
new weight for 0 is: -21
new weight for 1 is: 3527380
new weight for 2 is: -3527252
new weight for 0 is: -21
new weight for 1 is: -141093855
new weight for 2 is: 141093951
new weight for 0 is: -21
new weight for 1 is: 4194281
new weight for 2 is: -4194153
new weight for 0 is: -21
new weight for 1 is: 4194321
new weight for 2 is: -4194193
new weight for 0 is: -21
new weight for 1 is: 4194321
new weight for 2 is: -4194193
new weight for 0 is: -21
new weight for 1 is: 4194321
new weight for 2 is: -4194193
new weight for 0 is: -21
new weight for 1 is: 4194321
new weight for 2 is: -4194193
new weight for 0 is: -21
new weight for 1 is: 4194321
new weight for 2 is: -4194193
new weight for 0 is: -21
new weight for 1 is: 4194321
new weight for 2 is: -4194193
new weight for 0 is: -21
new weight for 1 is: 4194321
new weight for 2 is: -4194193
new weight for 0 is: -21
new weight for 1 is: 4194321
new weight for 2 is: -4194193
new weight for 0 is: -21
new weight for 1 is: -151242790
new weight for 2 is: 151242918
new weight for 0 is: -21
new weight for 1 is: -147771412
new weight for 2 is: 147771540
new weight for 0 is: -21
new weight for 1 is: -147771412
new weight for 2 is: 147771540
new weight for 0 is: -21
new weight for 1 is: -151242830
new weight for 2 is: 151242958
new weight for 0 is: -21
new weight for 1 is: -151242830
new weight for 2 is: 151242958
new weight for 0 is: -21
new weight for 1 is: -151242830
new weight for 2 is: 151242958
new weight for 0 is: -21
new weight for 1 is: -151242830
new weight for 2 is: 151242958
new weight for 0 is: -21
new weight for 1 is: -151242830
new weight for 2 is: 151242958
new weight for 0 is: -21
new weight for 1 is: -151242830
new weight for 2 is: 151242958
new weight for 0 is: -21
new weight for 1 is: -164515111
new weight for 2 is: 164515183
new weight for 0 is: -21
new weight for 1 is: -164515111
new weight for 2 is: 164515183
new weight for 0 is: -21
new weight for 1 is: -164536848
new weight for 2 is: 164536924
new weight for 0 is: -21
new weight for 1 is: -164536848
new weight for 2 is: 164536924
new weight for 0 is: -21
new weight for 1 is: -164536759
new weight for 2 is: 164536887
new weight for 0 is: -21
new weight for 1 is: -164536759
new weight for 2 is: 164536887
new weight for 0 is: -21
new weight for 1 is: 4194332
new weight for 2 is: -4194204
new weight for 0 is: -21
new weight for 1 is: 4194372
new weight for 2 is: -4194244
new weight for 0 is: -21
new weight for 1 is: 4194372
new weight for 2 is: -4194244
new weight for 0 is: -21
new weight for 1 is: 4194372
new weight for 2 is: -4194244
new weight for 0 is: -21
new weight for 1 is: 4194372
new weight for 2 is: -4194244
new weight for 0 is: -21
new weight for 1 is: 4194372
new weight for 2 is: -4194244
new weight for 0 is: -21
new weight for 1 is: -147771372
new weight for 2 is: 147771500
new weight for 0 is: -21
new weight for 1 is: -147771412
new weight for 2 is: 147771540
info: Increasing stack size by one page.
info: Increasing stack size by one page.
info: Increasing stack size by one page.
x264 [error]: ratecontrol_init: can't open stats file
x264 [error]: x264_encoder_open failed
new weight for 0 is: -21
new weight for 1 is: 3345156
new weight for 2 is: -3345028
new weight for 0 is: -21
new weight for 1 is: 3345196
new weight for 2 is: -3345068
new weight for 0 is: -21
new weight for 1 is: 3345196
new weight for 2 is: -3345068
new weight for 0 is: -21
new weight for 1 is: 3345196
new weight for 2 is: -3345068
new weight for 0 is: -21
new weight for 1 is: -137235069
new weight for 2 is: 137235149
new weight for 0 is: -21
new weight for 1 is: -137235109
new weight for 2 is: 137235189
Exiting @ tick 21518365000 because exiting with last active thread context
Simulated exit code not 0! Exit code is 255
