Running SPEC test: xalancbmk

/home/victorfu/cpu2017/benchspec/CPU/523.xalancbmk_r
/home/victorfu/finalproject/gem5/build/X86/gem6.opt --outdir="/home/victorfu/output/bench_spec/fastforward/xalancbmk" /home/victorfu/finalproject/gem5/configs/example/se.py --cmd=cpuxalan_r_base.victor_jun10-m64 --standard-switch=0 --warmup-insts=183000000 --caches  --l2cache --l1i_size=16kB  --l1d_size=64kB --l2_size=256kB --cpu-type=DerivO3CPU  --mem-type=DDR3_1600_8x8  --cpu-clock=1GHz --maxinsts=10000000 --options="-v t5.xml xalanc.xsl" --l2-hwp-type=TaggedPrefetcher --mlu_pf_type=perceptron

gem5 Simulator System.  http://gem5.org
gem5 is copyrighted software; use the --copyright option for details.

gem5 compiled Jun 14 2019 14:23:51
gem5 started Jun 14 2019 15:13:52
gem5 executing on tetracosa.cs.ucla.edu, pid 138727
command line: /home/victorfu/finalproject/gem5/build/X86/gem6.opt --outdir=/home/victorfu/output/bench_spec/fastforward/xalancbmk /home/victorfu/finalproject/gem5/configs/example/se.py --cmd=cpuxalan_r_base.victor_jun10-m64 --standard-switch=0 --warmup-insts=183000000 --caches --l2cache --l1i_size=16kB --l1d_size=64kB --l2_size=256kB --cpu-type=DerivO3CPU --mem-type=DDR3_1600_8x8 --cpu-clock=1GHz --maxinsts=10000000 '--options=-v t5.xml xalanc.xsl' --l2-hwp-type=TaggedPrefetcher --mlu_pf_type=perceptron

info: Standard input is not a terminal, disabling listeners.
Warning: l2-hwp-type is set ( TaggedPrefetcher ), but the current l2 has a default Hardware Prefetcher of type <class 'm5.params.NullSimObject'> , using the specified by the flag option.
MLU-Prefetch Perceptron Enabled.
Global frequency set at 1000000000000 ticks per second
warn: DRAM device capacity (8192 Mbytes) does not match the address range assigned (512 Mbytes)
warn: Sockets disabled, not accepting gdb connections
**** REAL SIMULATION ****
info: Entering event queue @ 0.  Starting simulation...
accept
accept
accept
accept
accept
accept
accept
accept
accept
accept
accept
accept
accept
accept
accept
accept
accept
accept
accept
accept
accept
accept
accept
accept
accept
accept
accept
accept
accept
accept
accept
accept
accept
accept
accept
accept
accept
accept
accept
accept
accept
accept
accept
accept
accept
accept
accept
accept
accept
accept
accept
accept
accept
accept
accept
accept
accept
accept
accept
accept
accept
accept
accept
accept
accept
accept
accept
accept
accept
accept
accept
accept
accept
accept
accept
accept
accept
accept
accept
accept
accept
accept
accept
accept
accept
accept
accept
accept
accept
accept
accept
accept
accept
accept
accept
accept
accept
accept
accept
accept
accept
accept
accept
accept
accept
accept
accept
accept
accept
accept
accept
accept
accept
accept
accept
accept
accept
accept
accept
accept
info: Increasing stack size by one page.
accept
accept
accept
accept
accept
accept
accept
accept
accept
accept
accept
accept
accept
accept
accept
accept
accept
accept
accept
accept
accept
accept
accept
accept
accept
accept
accept
accept
accept
accept
accept
accept
accept
accept
accept
accept
accept
accept
accept
accept
accept
accept
accept
accept
accept
accept
accept
accept
accept
accept
accept
accept
accept
accept
accept
accept
accept
accept
accept
accept
accept
accept
accept
accept
accept
accept
accept
accept
accept
accept
accept
accept
accept
accept
accept
accept
accept
accept
accept
accept
accept
accept
accept
accept
accept
accept
accept
accept
accept
accept
accept
accept
accept
accept
accept
accept
accept
accept
accept
accept
accept
accept
accept
accept
accept
accept
accept
accept
accept
accept
accept
accept
accept
accept
accept
accept
accept
accept
accept
accept
accept
accept
accept
accept
accept
accept
accept
accept
accept
accept
accept
accept
accept
accept
accept
accept
accept
accept
accept
accept
accept
accept
accept
accept
weight of 0 is -0.514789
weight of 1 is -0.000009
weight of 2 is -1.244444
weight of 3 is -1.000000
not used!
deny
deny
deny
deny
deny
deny
weight of 0 is -1.029536
weight of 1 is -0.040200
weight of 2 is -1.600000
weight of 3 is -2.000000
not used!
deny
deny
weight of 0 is -0.515284
weight of 1 is -0.039411
weight of 2 is -1.600000
weight of 3 is -1.000000
used!
weight of 0 is -0.001032
weight of 1 is -0.038622
weight of 2 is -1.600000
weight of 3 is 0.000000
used!
accept
accept
accept
accept
accept
accept
deny
deny
weight of 0 is -0.515787
weight of 1 is -0.038784
weight of 2 is -1.955556
weight of 3 is -1.000000
not used!
deny
deny
deny
deny
deny
deny
deny
deny
weight of 0 is -0.001535
weight of 1 is 0.001963
weight of 2 is -1.955556
weight of 3 is 0.000000
used!
weight of 0 is 0.512718
weight of 1 is 0.042711
weight of 2 is -1.955556
weight of 3 is 1.000000
used!
accept
accept
accept
accept
weight of 0 is 1.026970
weight of 1 is 0.042729
weight of 2 is -1.955556
weight of 3 is 2.000000
used!
weight of 0 is 1.541223
weight of 1 is 0.042748
weight of 2 is -1.955556
weight of 3 is 3.000000
used!
weight of 0 is 1.026467
weight of 1 is 0.001754
weight of 2 is -1.955556
weight of 3 is 2.000000
not used!
accept
accept
weight of 0 is 0.511721
weight of 1 is 0.000852
weight of 2 is -1.955556
weight of 3 is 1.000000
not used!
weight of 0 is -0.003035
weight of 1 is -0.000077
weight of 2 is -2.666667
weight of 3 is 0.000000
not used!
accept
accept
weight of 0 is -0.517288
weight of 1 is -0.041043
weight of 2 is -2.666667
weight of 3 is -1.000000
not used!
deny
deny
deny
deny
deny
deny
weight of 0 is -1.031524
weight of 1 is -0.042358
weight of 2 is -2.666667
weight of 3 is -2.000000
not used!
weight of 0 is -1.545760
weight of 1 is -0.042363
weight of 2 is -3.733333
weight of 3 is -3.000000
not used!
deny
deny
deny
deny
weight of 0 is -2.059997
weight of 1 is -0.042410
weight of 2 is -3.911111
weight of 3 is -4.000000
not used!
deny
deny
weight of 0 is -2.574740
weight of 1 is -0.083599
weight of 2 is -4.622222
weight of 3 is -5.000000
not used!
deny
deny
weight of 0 is -2.060487
weight of 1 is -0.083580
weight of 2 is -4.622222
weight of 3 is -4.000000
used!
weight of 0 is -1.546235
weight of 1 is -0.083561
weight of 2 is -4.622222
weight of 3 is -3.000000
used!
deny
deny
weight of 0 is -2.060876
weight of 1 is -0.091799
weight of 2 is -4.622222
weight of 3 is -4.000000
not used!
deny
deny
weight of 0 is -2.575109
weight of 1 is -0.124977
weight of 2 is -4.711111
weight of 3 is -5.000000
not used!
deny
deny
weight of 0 is -2.060857
weight of 1 is -0.119434
weight of 2 is -4.711111
weight of 3 is -4.000000
used!
weight of 0 is -1.546604
weight of 1 is -0.113892
weight of 2 is -4.711111
weight of 3 is -3.000000
used!
deny
deny
deny
deny
weight of 0 is -2.061361
weight of 1 is -0.154930
weight of 2 is -5.244444
weight of 3 is -4.000000
not used!
deny
deny
weight of 0 is -1.546879
weight of 1 is -0.154929
weight of 2 is -5.244444
weight of 3 is -3.000000
used!
weight of 0 is -1.032398
weight of 1 is -0.154928
weight of 2 is -5.244444
weight of 3 is -2.000000
used!
deny
deny
weight of 0 is -0.518145
weight of 1 is -0.147300
weight of 2 is -5.244444
weight of 3 is -1.000000
used!
weight of 0 is -0.003893
weight of 1 is -0.139673
weight of 2 is -5.244444
weight of 3 is 0.000000
used!
weight of 0 is -0.518125
weight of 1 is -0.182457
weight of 2 is -5.333333
weight of 3 is -1.000000
not used!
deny
deny
weight of 0 is -0.003644
weight of 1 is -0.165381
weight of 2 is -4.000000
weight of 3 is 0.000000
used!
weight of 0 is 0.510838
weight of 1 is -0.148304
weight of 2 is -2.666667
weight of 3 is 1.000000
used!
weight of 0 is -0.003394
weight of 1 is -0.148333
weight of 2 is -3.466667
weight of 3 is 0.000000
not used!
accept
accept
weight of 0 is 0.510858
weight of 1 is -0.148314
weight of 2 is -3.466667
weight of 3 is 1.000000
used!
weight of 0 is 1.025111
weight of 1 is -0.148295
weight of 2 is -3.466667
weight of 3 is 2.000000
used!
weight of 0 is 0.510878
weight of 1 is -0.148415
weight of 2 is -4.800000
weight of 3 is 1.000000
not used!
weight of 0 is -0.003355
weight of 1 is -0.148416
weight of 2 is -4.800000
weight of 3 is 0.000000
not used!
accept
accept
weight of 0 is -0.517608
weight of 1 is -0.150050
weight of 2 is -4.800000
weight of 3 is -1.000000
not used!
weight of 0 is -1.032364
weight of 1 is -0.191020
weight of 2 is -5.777778
weight of 3 is -2.000000
not used!
deny
deny
deny
deny
weight of 0 is -1.546616
weight of 1 is -0.203438
weight of 2 is -5.777778
weight of 3 is -3.000000
not used!
deny
deny
weight of 0 is -1.032364
weight of 1 is -0.203382
weight of 2 is -5.777778
weight of 3 is -2.000000
used!
weight of 0 is -0.518112
weight of 1 is -0.203325
weight of 2 is -5.777778
weight of 3 is -1.000000
used!
weight of 0 is -1.032898
weight of 1 is -0.235651
weight of 2 is -6.666667
weight of 3 is -2.000000
not used!
deny
deny
weight of 0 is -1.546991
weight of 1 is -0.280964
weight of 2 is -7.733333
weight of 3 is -3.000000
not used!
deny
deny
weight of 0 is -2.061743
weight of 1 is -0.295104
weight of 2 is -8.622222
weight of 3 is -4.000000
not used!
deny
deny
weight of 0 is -1.547491
weight of 1 is -0.294878
weight of 2 is -8.622222
weight of 3 is -3.000000
used!
weight of 0 is -1.033238
weight of 1 is -0.294653
weight of 2 is -8.622222
weight of 3 is -2.000000
used!
deny
deny
weight of 0 is -1.547697
weight of 1 is -0.297363
weight of 2 is -9.866667
weight of 3 is -3.000000
not used!
deny
deny
deny
deny
deny
deny
weight of 0 is -1.033445
weight of 1 is -0.283028
weight of 2 is -9.866667
weight of 3 is -2.000000
used!
weight of 0 is -0.519193
weight of 1 is -0.268693
weight of 2 is -9.866667
weight of 3 is -1.000000
used!
weight of 0 is -1.033625
weight of 1 is -0.283340
weight of 2 is -10.755556
weight of 3 is -2.000000
not used!
deny
deny
deny
deny
weight of 0 is -0.519373
weight of 1 is -0.283322
weight of 2 is -10.755556
weight of 3 is -1.000000
used!
weight of 0 is -0.005120
weight of 1 is -0.283303
weight of 2 is -10.755556
weight of 3 is 0.000000
used!
weight of 0 is -0.519442
weight of 1 is -0.292311
weight of 2 is -10.933333
weight of 3 is -1.000000
not used!
deny
deny
weight of 0 is -1.033763
weight of 1 is -0.292331
weight of 2 is -11.022222
weight of 3 is -2.000000
not used!
deny
deny
weight of 0 is -0.519510
weight of 1 is -0.292312
weight of 2 is -11.022222
weight of 3 is -1.000000
used!
weight of 0 is -0.005258
weight of 1 is -0.292294
weight of 2 is -11.022222
weight of 3 is 0.000000
used!
weight of 0 is -0.519579
weight of 1 is -0.297844
weight of 2 is -11.644444
weight of 3 is -1.000000
not used!
deny
deny
weight of 0 is -0.005326
weight of 1 is -0.297825
weight of 2 is -11.644444
weight of 3 is 0.000000
used!
weight of 0 is 0.508926
weight of 1 is -0.297807
weight of 2 is -11.644444
weight of 3 is 1.000000
used!
weight of 0 is -0.005326
weight of 1 is -0.303301
weight of 2 is -11.644444
weight of 3 is 0.000000
not used!
weight of 0 is -0.519579
weight of 1 is -0.303338
weight of 2 is -11.644444
weight of 3 is -1.000000
not used!
info: Increasing stack size by one page.
deny
deny
deny
deny
weight of 0 is -1.034039
weight of 1 is -0.319401
weight of 2 is -11.644444
weight of 3 is -2.000000
not used!
deny
deny
weight of 0 is -0.519787
weight of 1 is -0.311398
weight of 2 is -11.644444
weight of 3 is -1.000000
used!
weight of 0 is -0.005534
weight of 1 is -0.303395
weight of 2 is -11.644444
weight of 3 is 0.000000
used!
deny
deny
weight of 0 is -0.519955
weight of 1 is -0.305712
weight of 2 is -12.533333
weight of 3 is -1.000000
not used!
deny
deny
deny
deny
weight of 0 is -1.034418
weight of 1 is -0.322844
weight of 2 is -13.777778
weight of 3 is -2.000000
not used!
deny
deny
weight of 0 is -0.520166
weight of 1 is -0.322825
weight of 2 is -13.777778
weight of 3 is -1.000000
used!
weight of 0 is -0.005913
weight of 1 is -0.322807
weight of 2 is -13.777778
weight of 3 is 0.000000
used!
accept
accept
weight of 0 is -0.520165
weight of 1 is -0.339882
weight of 2 is -13.777778
weight of 3 is -1.000000
not used!
weight of 0 is -1.034583
weight of 1 is -0.353296
weight of 2 is -13.777778
weight of 3 is -2.000000
not used!
deny
deny
weight of 0 is -0.520331
weight of 1 is -0.314552
weight of 2 is -13.777778
weight of 3 is -1.000000
used!
weight of 0 is -0.006078
weight of 1 is -0.275808
weight of 2 is -13.777778
weight of 3 is 0.000000
used!
weight of 0 is -0.520331
weight of 1 is -0.289166
weight of 2 is -13.777778
weight of 3 is -1.000000
not used!
deny
deny
deny
deny
weight of 0 is -0.006078
weight of 1 is -0.289034
weight of 2 is -13.777778
weight of 3 is 0.000000
used!
weight of 0 is 0.508174
weight of 1 is -0.288903
weight of 2 is -13.777778
weight of 3 is 1.000000
used!
accept
accept
accept
accept
weight of 0 is 1.022427
weight of 1 is -0.288827
weight of 2 is -13.777778
weight of 3 is 2.000000
used!
weight of 0 is 1.536679
weight of 1 is -0.288752
weight of 2 is -13.777778
weight of 3 is 3.000000
used!
weight of 0 is 1.021868
weight of 1 is -0.334318
weight of 2 is -14.311111
weight of 3 is 2.000000
not used!
accept
accept
accept
accept
weight of 0 is 1.536120
weight of 1 is -0.295950
weight of 2 is -14.311111
weight of 3 is 3.000000
used!
weight of 0 is 2.050372
weight of 1 is -0.257582
weight of 2 is -14.311111
weight of 3 is 4.000000
used!
weight of 0 is 1.536120
weight of 1 is -0.303092
weight of 2 is -14.311111
weight of 3 is 3.000000
not used!
accept
accept
weight of 0 is 1.021308
weight of 1 is -0.348562
weight of 2 is -14.666667
weight of 3 is 2.000000
not used!
accept
accept
weight of 0 is 0.507056
weight of 1 is -0.368669
weight of 2 is -14.666667
weight of 3 is 1.000000
not used!
weight of 0 is -0.007699
weight of 1 is -0.368697
weight of 2 is -14.666667
weight of 3 is 0.000000
not used!
weight of 0 is -0.521951
weight of 1 is -0.409503
weight of 2 is -14.666667
weight of 3 is -1.000000
not used!
weight of 0 is -1.036204
weight of 1 is -0.436237
weight of 2 is -14.666667
weight of 3 is -2.000000
not used!
deny
deny
deny
deny
deny
deny
deny
deny
weight of 0 is -1.551014
weight of 1 is -0.481568
weight of 2 is -15.911111
weight of 3 is -3.000000
not used!
deny
deny
weight of 0 is -1.036762
weight of 1 is -0.466200
weight of 2 is -15.911111
weight of 3 is -2.000000
used!
weight of 0 is -0.522509
weight of 1 is -0.450832
weight of 2 is -15.911111
weight of 3 is -1.000000
used!
deny
deny
deny
deny
weight of 0 is -0.008257
weight of 1 is -0.446847
weight of 2 is -15.911111
weight of 3 is 0.000000
used!
weight of 0 is 0.505996
weight of 1 is -0.442862
weight of 2 is -15.911111
weight of 3 is 1.000000
used!
accept
accept
weight of 0 is 1.020248
weight of 1 is -0.425202
weight of 2 is -15.911111
weight of 3 is 2.000000
used!
weight of 0 is 1.534500
weight of 1 is -0.407542
weight of 2 is -15.911111
weight of 3 is 3.000000
used!
weight of 0 is 1.019824
weight of 1 is -0.442064
weight of 2 is -16.622222
weight of 3 is 2.000000
not used!
accept
accept
weight of 0 is 1.534076
weight of 1 is -0.438160
weight of 2 is -16.622222
weight of 3 is 3.000000
used!
weight of 0 is 2.048329
weight of 1 is -0.434257
weight of 2 is -16.622222
weight of 3 is 4.000000
used!
accept
accept
weight of 0 is 1.534031
weight of 1 is -0.447288
weight of 2 is -17.911111
weight of 3 is 3.000000
not used!
weight of 0 is 1.019779
weight of 1 is -0.450931
weight of 2 is -17.911111
weight of 3 is 2.000000
not used!
weight of 0 is 0.505526
weight of 1 is -0.450950
weight of 2 is -17.911111
weight of 3 is 1.000000
not used!
accept
accept
warn: ignoring syscall access(...)
accept
accept
weight of 0 is -0.008726
weight of 1 is -0.466900
weight of 2 is -17.911111
weight of 3 is 0.000000
not used!
accept
accept
weight of 0 is -0.522978
weight of 1 is -0.495344
weight of 2 is -17.911111
weight of 3 is -1.000000
not used!
deny
deny
weight of 0 is -1.037231
weight of 1 is -0.495401
weight of 2 is -17.911111
weight of 3 is -2.000000
not used!
deny
deny
deny
deny
deny
deny
deny
deny
deny
deny
weight of 0 is -0.522978
weight of 1 is -0.483865
weight of 2 is -17.911111
weight of 3 is -1.000000
used!
weight of 0 is -0.008726
weight of 1 is -0.472330
weight of 2 is -17.911111
weight of 3 is 0.000000
used!
accept
accept
weight of 0 is 0.505527
weight of 1 is -0.472311
weight of 2 is -17.911111
weight of 3 is 1.000000
used!
weight of 0 is 1.019779
weight of 1 is -0.472292
weight of 2 is -17.911111
weight of 3 is 2.000000
used!
accept
accept
accept
accept
weight of 0 is 0.505174
weight of 1 is -0.473879
weight of 2 is -17.911111
weight of 3 is 1.000000
not used!
accept
accept
weight of 0 is -0.009078
weight of 1 is -0.502529
weight of 2 is -17.911111
weight of 3 is 0.000000
not used!
weight of 0 is -0.523330
weight of 1 is -0.502548
weight of 2 is -17.911111
weight of 3 is -1.000000
not used!
deny
deny
deny
deny
weight of 0 is -1.037583
weight of 1 is -0.533042
weight of 2 is -17.911111
weight of 3 is -2.000000
not used!
deny
deny
weight of 0 is -1.552209
weight of 1 is -0.563593
weight of 2 is -18.088889
weight of 3 is -3.000000
not used!
deny
deny
weight of 0 is -2.066971
weight of 1 is -0.564594
weight of 2 is -19.244444
weight of 3 is -4.000000
not used!
deny
deny
weight of 0 is -2.581595
weight of 1 is -0.565464
weight of 2 is -19.422222
weight of 3 is -5.000000
not used!
deny
deny
weight of 0 is -3.096350
weight of 1 is -0.606322
weight of 2 is -20.488889
weight of 3 is -6.000000
not used!
deny
deny
deny
deny
weight of 0 is -2.582098
weight of 1 is -0.583927
weight of 2 is -20.488889
weight of 3 is -5.000000
used!
weight of 0 is -2.067845
weight of 1 is -0.561533
weight of 2 is -20.488889
weight of 3 is -4.000000
used!
deny
deny
deny
deny
weight of 0 is -1.553593
weight of 1 is -0.544740
weight of 2 is -20.488889
weight of 3 is -3.000000
used!
weight of 0 is -1.039340
weight of 1 is -0.527946
weight of 2 is -20.488889
weight of 3 is -2.000000
used!
deny
deny
weight of 0 is -0.525088
weight of 1 is -0.527927
weight of 2 is -20.488889
weight of 3 is -1.000000
used!
weight of 0 is -0.010835
weight of 1 is -0.527908
weight of 2 is -20.488889
weight of 3 is 0.000000
used!
accept
accept
weight of 0 is 0.503417
weight of 1 is 1.300559
weight of 2 is -20.488889
weight of 3 is 1.000000
used!
weight of 0 is 1.017670
weight of 1 is 3.129026
weight of 2 is -20.488889
weight of 3 is 2.000000
used!
accept
accept
weight of 0 is 1.531922
weight of 1 is 3.129552
weight of 2 is -20.488889
weight of 3 is 3.000000
used!
weight of 0 is 2.046175
weight of 1 is 3.130078
weight of 2 is -20.488889
weight of 3 is 4.000000
used!
accept
accept
weight of 0 is 2.560427
weight of 1 is 3.130097
weight of 2 is -20.488889
weight of 3 is 5.000000
used!
weight of 0 is 3.074680
weight of 1 is 3.130115
weight of 2 is -20.488889
weight of 3 is 6.000000
used!
weight of 0 is 2.582566
weight of 1 is 1.328093
weight of 2 is -21.733333
weight of 3 is 5.000000
not used!
accept
accept
weight of 0 is 2.068314
weight of 1 is -0.473910
weight of 2 is -21.733333
weight of 3 is 4.000000
not used!
accept
accept
weight of 0 is 1.576193
weight of 1 is -2.275995
weight of 2 is -22.444444
weight of 3 is 3.000000
not used!
weight of 0 is 1.084080
weight of 1 is -2.276007
weight of 2 is -22.622222
weight of 3 is 2.000000
not used!
weight of 0 is 0.591967
weight of 1 is -2.276023
weight of 2 is -22.622222
weight of 3 is 1.000000
not used!
accept
accept
deny
deny
accept
accept
weight of 0 is 0.077714
weight of 1 is -2.304204
weight of 2 is -22.622222
weight of 3 is 0.000000
not used!
weight of 0 is -0.436164
weight of 1 is -2.334655
weight of 2 is -22.888889
weight of 3 is -1.000000
not used!
deny
deny
weight of 0 is -0.949789
weight of 1 is -2.383470
weight of 2 is -24.133333
weight of 3 is -2.000000
not used!
deny
deny
deny
deny
weight of 0 is -0.435536
weight of 1 is -2.378116
weight of 2 is -24.133333
weight of 3 is -1.000000
used!
weight of 0 is 0.078716
weight of 1 is -2.372761
weight of 2 is -24.133333
weight of 3 is 0.000000
used!
deny
deny
accept
accept
deny
deny
deny
deny
deny
deny
accept
accept
weight of 0 is -0.435536
weight of 1 is -2.412410
weight of 2 is -24.133333
weight of 3 is -1.000000
not used!
weight of 0 is -0.950287
weight of 1 is -2.452114
weight of 2 is -24.666667
weight of 3 is -2.000000
not used!
deny
deny
weight of 0 is -1.463913
weight of 1 is -2.543763
weight of 2 is -24.844444
weight of 3 is -3.000000
not used!
deny
deny
weight of 0 is -1.977539
weight of 1 is -2.543782
weight of 2 is -25.022222
weight of 3 is -4.000000
not used!
deny
deny
weight of 0 is -1.463287
weight of 1 is -2.543763
weight of 2 is -25.022222
weight of 3 is -3.000000
used!
weight of 0 is -0.949034
weight of 1 is -2.543744
weight of 2 is -25.022222
weight of 3 is -2.000000
used!
deny
deny
weight of 0 is -0.434323
weight of 1 is -2.543731
weight of 2 is -24.488889
weight of 3 is -1.000000
used!
weight of 0 is 0.080389
weight of 1 is -2.543719
weight of 2 is -23.955556
weight of 3 is 0.000000
used!
accept
accept
weight of 0 is 0.594641
weight of 1 is -2.543700
weight of 2 is -23.955556
weight of 3 is 1.000000
used!
weight of 0 is 1.108894
weight of 1 is -2.543681
weight of 2 is -23.955556
weight of 3 is 2.000000
used!
accept
accept
weight of 0 is 0.594264
weight of 1 is -2.557126
weight of 2 is -24.844444
weight of 3 is 1.000000
not used!
weight of 0 is 0.079864
weight of 1 is -2.557235
weight of 2 is -25.733333
weight of 3 is 0.000000
not used!
accept
accept
weight of 0 is -0.434388
weight of 1 is -2.587851
weight of 2 is -25.733333
weight of 3 is -1.000000
not used!
weight of 0 is -0.949020
weight of 1 is -2.618787
weight of 2 is -26.644444
weight of 3 is -2.000000
not used!
weight of 0 is -1.463649
weight of 1 is -2.659869
weight of 2 is -27.622222
weight of 3 is -3.000000
not used!
weight of 0 is -1.978426
weight of 1 is -2.661488
weight of 2 is -28.866667
weight of 3 is -4.000000
not used!
deny
deny
deny
deny
deny
deny
weight of 0 is -2.492679
weight of 1 is -2.661958
weight of 2 is -28.866667
weight of 3 is -5.000000
not used!
deny
deny
deny
deny
weight of 0 is -1.978426
weight of 1 is -2.661901
weight of 2 is -28.866667
weight of 3 is -4.000000
used!
weight of 0 is -1.464174
weight of 1 is -2.661845
weight of 2 is -28.866667
weight of 3 is -3.000000
used!
deny
deny
deny
deny
weight of 0 is -0.949922
weight of 1 is -2.661713
weight of 2 is -28.866667
weight of 3 is -2.000000
used!
weight of 0 is -0.435669
weight of 1 is -2.661582
weight of 2 is -28.866667
weight of 3 is -1.000000
used!
deny
deny
deny
deny
weight of 0 is 0.078583
weight of 1 is -2.661563
weight of 2 is -28.866667
weight of 3 is 0.000000
used!
weight of 0 is 0.592836
weight of 1 is -2.661544
weight of 2 is -28.866667
weight of 3 is 1.000000
used!
accept
accept
accept
accept
deny
deny
deny
deny
weight of 0 is 0.078085
weight of 1 is -2.702111
weight of 2 is -29.222222
weight of 3 is 0.000000
not used!
deny
deny
weight of 0 is -0.436167
weight of 1 is -2.742658
weight of 2 is -29.222222
weight of 3 is -1.000000
not used!
deny
deny
deny
deny
deny
deny
deny
deny
deny
deny
deny
deny
deny
deny
deny
deny
deny
deny
deny
deny
weight of 0 is 0.078422
weight of 1 is -2.742602
weight of 2 is -28.333333
weight of 3 is 0.000000
used!
weight of 0 is 0.593011
weight of 1 is -2.742546
weight of 2 is -27.444444
weight of 3 is 1.000000
used!
accept
accept
weight of 0 is 1.107263
weight of 1 is -2.723511
weight of 2 is -27.444444
weight of 3 is 2.000000
used!
weight of 0 is 1.621516
weight of 1 is -2.704476
weight of 2 is -27.444444
weight of 3 is 3.000000
used!
accept
accept
deny
deny
weight of 0 is 1.107263
weight of 1 is -2.735003
weight of 2 is -27.444444
weight of 3 is 2.000000
not used!
deny
deny
accept
accept
accept
accept
accept
accept
accept
accept
accept
accept
accept
accept
deny
deny
accept
accept
deny
deny
accept
accept
deny
deny
deny
deny
deny
deny
deny
deny
deny
deny
deny
deny
deny
deny
deny
deny
deny
deny
accept
accept
deny
deny
deny
deny
weight of 0 is 1.621842
weight of 1 is -2.728946
weight of 2 is -26.111111
weight of 3 is 3.000000
used!
weight of 0 is 2.136421
weight of 1 is -2.722889
weight of 2 is -24.777778
weight of 3 is 4.000000
used!
deny
deny
weight of 0 is 1.622169
weight of 1 is -2.722983
weight of 2 is -24.777778
weight of 3 is 3.000000
not used!
deny
deny
deny
deny
accept
accept
accept
accept
accept
accept
weight of 0 is 1.107916
weight of 1 is -2.723171
weight of 2 is -24.777778
weight of 3 is 2.000000
not used!
weight of 0 is 0.593251
weight of 1 is -2.756781
weight of 2 is -24.777778
weight of 3 is 1.000000
not used!
accept
accept
accept
accept
weight of 0 is 1.107903
weight of 1 is -2.750989
weight of 2 is -24.466667
weight of 3 is 2.000000
used!
weight of 0 is 1.622555
weight of 1 is -2.745198
weight of 2 is -24.155556
weight of 3 is 3.000000
used!
deny
deny
accept
accept
accept
accept
weight of 0 is 1.108303
weight of 1 is -2.770673
weight of 2 is -24.155556
weight of 3 is 2.000000
not used!
accept
accept
deny
deny
accept
accept
accept
accept
accept
accept
accept
accept
deny
deny
weight of 0 is 1.622909
weight of 1 is -2.757500
weight of 2 is -23.800000
weight of 3 is 3.000000
used!
weight of 0 is 2.137515
weight of 1 is -2.744326
weight of 2 is -23.444444
weight of 3 is 4.000000
used!
weight of 0 is 1.623262
weight of 1 is -2.745228
weight of 2 is -23.444444
weight of 3 is 3.000000
not used!
deny
deny
weight of 0 is 2.137973
weight of 1 is -2.732864
weight of 2 is -22.200000
weight of 3 is 4.000000
used!
weight of 0 is 2.652684
weight of 1 is -2.720499
weight of 2 is -20.955556
weight of 3 is 5.000000
used!
deny
deny
weight of 0 is 3.167443
weight of 1 is -2.679240
weight of 2 is -20.777778
weight of 3 is 6.000000
used!
weight of 0 is 3.682203
weight of 1 is -2.637981
weight of 2 is -20.600000
weight of 3 is 7.000000
used!
accept
accept
weight of 0 is 4.196962
weight of 1 is -2.637958
weight of 2 is -20.066667
weight of 3 is 8.000000
used!
weight of 0 is 4.711722
weight of 1 is -2.637934
weight of 2 is -19.533333
weight of 3 is 9.000000
used!
accept
accept
accept
accept
accept
accept
deny
deny
deny
deny
accept
accept
weight of 0 is 4.197470
weight of 1 is -2.637953
weight of 2 is -19.533333
weight of 3 is 8.000000
not used!
accept
accept
weight of 0 is 3.683217
weight of 1 is -2.653077
weight of 2 is -19.533333
weight of 3 is 7.000000
not used!
accept
accept
weight of 0 is 3.168607
weight of 1 is -2.682180
weight of 2 is -19.711111
weight of 3 is 6.000000
not used!
weight of 0 is 2.654355
weight of 1 is -2.699129
weight of 2 is -19.711111
weight of 3 is 5.000000
not used!
accept
accept
weight of 0 is 2.140103
weight of 1 is -2.731478
weight of 2 is -19.711111
weight of 3 is 4.000000
not used!
deny
deny
deny
deny
deny
deny
deny
deny
weight of 0 is 2.654790
weight of 1 is -2.731456
weight of 2 is -19.000000
weight of 3 is 5.000000
used!
weight of 0 is 3.169479
weight of 1 is -2.731434
weight of 2 is -18.288889
weight of 3 is 6.000000
used!
deny
deny
deny
deny
weight of 0 is 3.684166
weight of 1 is -2.731391
weight of 2 is -17.222222
weight of 3 is 7.000000
used!
weight of 0 is 4.198853
weight of 1 is -2.731349
weight of 2 is -16.155556
weight of 3 is 8.000000
used!
accept
accept
weight of 0 is 4.713541
weight of 1 is -2.729718
weight of 2 is -15.177778
weight of 3 is 9.000000
used!
weight of 0 is 5.228229
weight of 1 is -2.728087
weight of 2 is -14.200000
weight of 3 is 10.000000
used!
accept
accept
accept
accept
accept
accept
accept
accept
accept
accept
accept
accept
accept
accept
deny
deny
accept
accept
accept
accept
weight of 0 is 5.742916
weight of 1 is -2.728032
weight of 2 is -13.400000
weight of 3 is 11.000000
used!
weight of 0 is 6.257603
weight of 1 is -2.727977
weight of 2 is -12.600000
weight of 3 is 12.000000
used!
accept
accept
deny
deny
accept
accept
weight of 0 is 5.743351
weight of 1 is -2.743737
weight of 2 is -12.600000
weight of 3 is 11.000000
not used!
accept
accept
warn: ignoring syscall mprotect(...)
accept
accept
deny
deny
accept
accept
weight of 0 is 5.229098
weight of 1 is -2.769520
weight of 2 is -12.600000
weight of 3 is 10.000000
not used!
weight of 0 is 4.714846
weight of 1 is -2.769539
weight of 2 is -12.600000
weight of 3 is 9.000000
not used!
accept
accept
deny
deny
weight of 0 is 4.200593
weight of 1 is -2.769652
weight of 2 is -12.600000
weight of 3 is 8.000000
not used!
accept
accept
accept
accept
accept
accept
accept
accept
weight of 0 is 3.686296
weight of 1 is -2.773109
weight of 2 is -12.600000
weight of 3 is 7.000000
not used!
accept
accept
accept
accept
accept
accept
weight of 0 is 3.172043
weight of 1 is -2.809040
weight of 2 is -12.600000
weight of 3 is 6.000000
not used!
accept
accept
accept
accept
accept
accept
accept
accept
weight of 0 is 2.657463
weight of 1 is -2.814754
weight of 2 is -12.688889
weight of 3 is 5.000000
not used!
accept
accept
accept
accept
accept
accept
deny
deny
weight of 0 is 2.143211
weight of 1 is -2.814980
weight of 2 is -12.688889
weight of 3 is 4.000000
not used!
accept
accept
weight of 0 is 1.628606
weight of 1 is -2.847162
weight of 2 is -12.688889
weight of 3 is 3.000000
not used!
deny
deny
accept
accept
weight of 0 is 2.155163
weight of 1 is -1.845981
weight of 2 is -12.155556
weight of 3 is 4.000000
used!
weight of 0 is 2.681720
weight of 1 is -0.844800
weight of 2 is -11.622222
weight of 3 is 5.000000
used!
accept
accept
weight of 0 is 3.208277
weight of 1 is 0.156696
weight of 2 is -11.444444
weight of 3 is 6.000000
used!
weight of 0 is 3.734834
weight of 1 is 1.158192
weight of 2 is -11.266667
weight of 3 is 7.000000
used!
accept
accept
accept
accept
accept
accept
accept
accept
accept
accept
accept
accept
accept
accept
deny
deny
accept
accept
weight of 0 is 3.220551
weight of 1 is 1.130575
weight of 2 is -11.266667
weight of 3 is 6.000000
not used!
weight of 0 is 2.706299
weight of 1 is 1.102788
weight of 2 is -11.266667
weight of 3 is 5.000000
not used!
accept
accept
accept
accept
accept
accept
weight of 0 is 2.192047
weight of 1 is 1.061529
weight of 2 is -11.266667
weight of 3 is 4.000000
not used!
weight of 0 is 1.677287
weight of 1 is 1.020216
weight of 2 is -11.266667
weight of 3 is 3.000000
not used!
weight of 0 is 1.163034
weight of 1 is 1.004360
weight of 2 is -11.266667
weight of 3 is 2.000000
not used!
deny
deny
weight of 0 is 0.648781
weight of 1 is 0.967320
weight of 2 is -11.266667
weight of 3 is 1.000000
not used!
deny
deny
deny
deny
deny
deny
deny
deny
accept
accept
accept
accept
weight of 0 is 0.134093
weight of 1 is 0.967296
weight of 2 is -11.622222
weight of 3 is 0.000000
not used!
deny
deny
deny
deny
deny
deny
deny
deny
accept
accept
deny
deny
deny
deny
weight of 0 is -0.380367
weight of 1 is 0.967206
weight of 2 is -11.622222
weight of 3 is -1.000000
not used!
deny
deny
weight of 0 is -0.894619
weight of 1 is 0.925480
weight of 2 is -11.622222
weight of 3 is -2.000000
not used!
deny
deny
deny
deny
weight of 0 is -0.380022
weight of 1 is 0.932009
weight of 2 is -11.177778
weight of 3 is -1.000000
used!
weight of 0 is 0.134575
weight of 1 is 0.938537
weight of 2 is -10.733333
weight of 3 is 0.000000
used!
accept
accept
weight of 0 is -0.380186
weight of 1 is 0.897111
weight of 2 is -10.733333
weight of 3 is -1.000000
not used!
weight of 0 is -0.894439
weight of 1 is 0.874360
weight of 2 is -10.733333
weight of 3 is -2.000000
not used!
deny
deny
deny
deny
deny
deny
deny
deny
deny
deny
weight of 0 is -0.379746
weight of 1 is 0.891637
weight of 2 is -9.844444
weight of 3 is -1.000000
used!
weight of 0 is 0.134946
weight of 1 is 0.908914
weight of 2 is -8.955556
weight of 3 is 0.000000
used!
deny
deny
deny
deny
weight of 0 is 0.649637
weight of 1 is 0.908934
weight of 2 is -7.711111
weight of 3 is 1.000000
used!
weight of 0 is 1.164329
weight of 1 is 0.908954
weight of 2 is -6.466667
weight of 3 is 2.000000
used!
deny
deny
weight of 0 is 1.679021
weight of 1 is 0.908976
weight of 2 is -5.311111
weight of 3 is 3.000000
used!
weight of 0 is 2.193714
weight of 1 is 0.908999
weight of 2 is -4.155556
weight of 3 is 4.000000
used!
weight of 0 is 1.679462
weight of 1 is -0.096910
weight of 2 is -4.155556
weight of 3 is 3.000000
not used!
accept
accept
deny
deny
weight of 0 is 2.194153
weight of 1 is -0.096855
weight of 2 is -3.177778
weight of 3 is 4.000000
used!
weight of 0 is 2.708845
weight of 1 is -0.096799
weight of 2 is -2.200000
weight of 3 is 5.000000
used!
warn: ignoring syscall mprotect(...)
weight of 0 is 2.182288
weight of 1 is -0.096818
weight of 2 is -2.377778
weight of 3 is 4.000000
not used!
weight of 0 is 1.655730
weight of 1 is -1.057468
weight of 2 is -2.555556
weight of 3 is 3.000000
not used!
weight of 0 is 1.129172
weight of 1 is -1.057487
weight of 2 is -2.733333
weight of 3 is 2.000000
not used!
weight of 0 is 0.602614
weight of 1 is -1.057506
weight of 2 is -2.911111
weight of 3 is 1.000000
not used!
weight of 0 is 0.087857
weight of 1 is -2.018139
weight of 2 is -2.911111
weight of 3 is 0.000000
not used!
deny
deny
accept
accept
deny
deny
deny
deny
deny
deny
deny
deny
accept
accept
deny
deny
deny
deny
accept
accept
weight of 0 is 0.626151
weight of 1 is -2.017881
weight of 2 is -2.555556
weight of 3 is 1.000000
used!
weight of 0 is 1.164445
weight of 1 is -2.017623
weight of 2 is -2.200000
weight of 3 is 2.000000
used!
deny
deny
deny
deny
weight of 0 is 0.650192
weight of 1 is -2.078468
weight of 2 is -2.200000
weight of 3 is 1.000000
not used!
accept
accept
accept
accept
weight of 0 is 1.188487
weight of 1 is -0.162846
weight of 2 is -2.200000
weight of 3 is 2.000000
used!
weight of 0 is 1.726782
weight of 1 is 1.752775
weight of 2 is -2.200000
weight of 3 is 3.000000
used!
accept
accept
weight of 0 is 2.241542
weight of 1 is 3.668287
weight of 2 is -1.666667
weight of 3 is 4.000000
used!
weight of 0 is 2.756302
weight of 1 is 5.583798
weight of 2 is -1.133333
weight of 3 is 5.000000
used!
accept
accept
weight of 0 is 3.270994
weight of 1 is 5.583823
weight of 2 is -0.600000
weight of 3 is 6.000000
used!
weight of 0 is 3.785687
weight of 1 is 5.583847
weight of 2 is -0.066667
weight of 3 is 7.000000
used!
weight of 0 is 3.271435
weight of 1 is 5.575769
weight of 2 is -0.066667
weight of 3 is 6.000000
not used!
accept
accept
weight of 0 is 2.757182
weight of 1 is 5.575712
weight of 2 is -0.066667
weight of 3 is 5.000000
not used!
accept
accept
weight of 0 is 2.242930
weight of 1 is 5.436640
weight of 2 is -0.066667
weight of 3 is 4.000000
not used!
weight of 0 is 1.728677
weight of 1 is 5.433183
weight of 2 is -0.066667
weight of 3 is 3.000000
not used!
accept
accept
accept
accept
accept
accept
accept
accept
accept
accept
weight of 0 is 1.214080
weight of 1 is 5.433162
weight of 2 is -0.155556
weight of 3 is 2.000000
not used!
accept
accept
accept
accept
accept
accept
accept
accept
accept
accept
accept
accept
accept
accept
accept
accept
accept
accept
accept
accept
accept
accept
accept
accept
accept
accept
accept
accept
accept
accept
accept
accept
accept
accept
accept
accept
accept
accept
accept
accept
weight of 0 is 0.699616
weight of 1 is 5.433075
weight of 2 is -0.155556
weight of 3 is 1.000000
not used!
accept
accept
accept
accept
warn: ignoring syscall mprotect(...)
weight of 0 is 0.161618
weight of 1 is 5.433062
weight of 2 is -0.155556
weight of 3 is 0.000000
not used!
accept
accept
accept
accept
accept
accept
accept
accept
weight of 0 is -0.352634
weight of 1 is 5.391976
weight of 2 is -0.155556
weight of 3 is -1.000000
not used!
deny
deny
accept
accept
weight of 0 is -0.890929
weight of 1 is 5.391958
weight of 2 is -0.155556
weight of 3 is -2.000000
not used!
weight of 0 is -1.429224
weight of 1 is 5.391939
weight of 2 is -0.155556
weight of 3 is -3.000000
not used!
weight of 0 is -1.943985
weight of 1 is 3.476334
weight of 2 is -0.333333
weight of 3 is -4.000000
not used!
deny
deny
deny
deny
deny
deny
weight of 0 is -1.397759
weight of 1 is 3.476759
weight of 2 is 0.200000
weight of 3 is -3.000000
used!
weight of 0 is -0.851532
weight of 1 is 3.477184
weight of 2 is 0.733333
weight of 3 is -2.000000
used!
deny
deny
weight of 0 is -0.305306
weight of 1 is 4.121381
weight of 2 is 0.911111
weight of 3 is -1.000000
used!
weight of 0 is 0.240921
weight of 1 is 4.765578
weight of 2 is 1.088889
weight of 3 is 0.000000
used!
weight of 0 is -0.273841
weight of 1 is 4.765376
weight of 2 is -0.155556
weight of 3 is -1.000000
not used!
deny
deny
weight of 0 is 0.272385
weight of 1 is 4.765395
weight of 2 is 0.022222
weight of 3 is 0.000000
used!
weight of 0 is 0.818612
weight of 1 is 4.765414
weight of 2 is 0.200000
weight of 3 is 1.000000
used!
accept
accept
weight of 0 is 1.364839
weight of 1 is 4.765432
weight of 2 is 0.377778
weight of 3 is 2.000000
used!
weight of 0 is 1.911066
weight of 1 is 4.765451
weight of 2 is 0.555556
weight of 3 is 3.000000
used!
accept
accept
weight of 0 is 2.457293
weight of 1 is 4.765470
weight of 2 is 0.733333
weight of 3 is 4.000000
used!
weight of 0 is 3.003520
weight of 1 is 4.765489
weight of 2 is 0.911111
weight of 3 is 5.000000
used!
accept
accept
accept
accept
accept
accept
weight of 0 is 2.476680
weight of 1 is 3.776914
weight of 2 is 0.555556
weight of 3 is 4.000000
not used!
accept
accept
weight of 0 is 1.984886
weight of 1 is 0.941965
weight of 2 is 0.555556
weight of 3 is 3.000000
not used!
weight of 0 is 1.492807
weight of 1 is 0.941890
weight of 2 is 0.555556
weight of 3 is 2.000000
not used!
weight of 0 is 1.000728
weight of 1 is 0.941877
weight of 2 is 0.066667
weight of 3 is 1.000000
not used!
weight of 0 is 0.486475
weight of 1 is -0.863517
weight of 2 is 0.066667
weight of 3 is 0.000000
not used!
weight of 0 is -0.040212
weight of 1 is -1.898555
weight of 2 is -0.622222
weight of 3 is -1.000000
not used!
deny
deny
weight of 0 is -0.554464
weight of 1 is -2.932992
weight of 2 is -0.622222
weight of 3 is -2.000000
not used!
deny
deny
deny
deny
deny
deny
deny
deny
deny
deny
weight of 0 is -1.069081
weight of 1 is -2.981263
weight of 2 is -1.066667
weight of 3 is -3.000000
not used!
weight of 0 is -1.583806
weight of 1 is -2.989856
weight of 2 is -2.088889
weight of 3 is -4.000000
not used!
deny
deny
weight of 0 is -2.098415
weight of 1 is -2.999105
weight of 2 is -2.711111
weight of 3 is -5.000000
not used!
deny
deny
weight of 0 is -1.583800
weight of 1 is -2.990998
weight of 2 is -2.266667
weight of 3 is -4.000000
used!
weight of 0 is -1.069185
weight of 1 is -2.982891
weight of 2 is -1.822222
weight of 3 is -3.000000
used!
weight of 0 is -1.583892
weight of 1 is -2.990795
weight of 2 is -2.000000
weight of 3 is -4.000000
not used!
deny
deny
weight of 0 is -2.098498
weight of 1 is -2.999022
weight of 2 is -2.266667
weight of 3 is -5.000000
not used!
deny
deny
weight of 0 is -2.613199
weight of 1 is -3.006686
weight of 2 is -2.444444
weight of 3 is -6.000000
not used!
deny
deny
weight of 0 is -2.098479
weight of 1 is -2.998318
weight of 2 is -1.422222
weight of 3 is -5.000000
used!
weight of 0 is -1.583759
weight of 1 is -2.989950
weight of 2 is -0.400000
weight of 3 is -4.000000
used!
weight of 0 is -2.098366
weight of 1 is -2.997452
weight of 2 is -1.555556
weight of 3 is -5.000000
not used!
deny
deny
weight of 0 is -2.613071
weight of 1 is -3.005234
weight of 2 is -1.577778
weight of 3 is -6.000000
not used!
weight of 0 is -3.127677
weight of 1 is -3.013101
weight of 2 is -2.022222
weight of 3 is -7.000000
not used!
weight of 0 is -3.642380
weight of 1 is -3.020828
weight of 2 is -2.933333
weight of 3 is -8.000000
not used!
weight of 0 is -4.157082
weight of 1 is -3.020896
weight of 2 is -2.955556
weight of 3 is -9.000000
not used!
weight of 0 is -4.671687
weight of 1 is -3.028577
weight of 2 is -3.222222
weight of 3 is -10.000000
not used!
weight of 0 is -5.186499
weight of 1 is -3.031348
weight of 2 is -4.222222
weight of 3 is -11.000000
not used!
deny
deny
deny
deny
deny
deny
deny
deny
weight of 0 is -5.724742
weight of 1 is -3.031568
weight of 2 is -4.666667
weight of 3 is -12.000000
not used!
deny
deny
weight of 0 is -5.186494
weight of 1 is -1.073609
weight of 2 is -4.311111
weight of 3 is -11.000000
used!
weight of 0 is -4.648247
weight of 1 is 0.884350
weight of 2 is -3.955556
weight of 3 is -10.000000
used!
weight of 0 is -5.186490
weight of 1 is 0.884308
weight of 2 is -4.133333
weight of 3 is -11.000000
not used!
deny
deny
weight of 0 is -4.648243
weight of 1 is 0.884328
weight of 2 is -3.422222
weight of 3 is -10.000000
used!
weight of 0 is -4.109997
weight of 1 is 0.884348
weight of 2 is -2.711111
weight of 3 is -9.000000
used!
deny
deny
weight of 0 is -3.571749
weight of 1 is 0.884370
weight of 2 is -2.088889
weight of 3 is -8.000000
used!
weight of 0 is -3.033501
weight of 1 is 0.884392
weight of 2 is -1.466667
weight of 3 is -7.000000
used!
weight of 0 is -3.571746
weight of 1 is 0.884385
weight of 2 is -2.533333
weight of 3 is -8.000000
not used!
deny
deny
deny
deny
deny
deny
deny
deny
warn: ignoring syscall mprotect(...)
weight of 0 is -4.110064
weight of 1 is 0.884251
weight of 2 is -3.422222
weight of 3 is -9.000000
not used!
weight of 0 is -4.624519
weight of 1 is -1.034790
weight of 2 is -4.666667
weight of 3 is -10.000000
not used!
deny
deny
deny
deny
deny
deny
weight of 0 is -4.064120
weight of 1 is 2.706371
weight of 2 is -3.955556
weight of 3 is -9.000000
used!
weight of 0 is -3.503722
weight of 1 is 6.447531
weight of 2 is -3.244444
weight of 3 is -8.000000
used!
deny
deny
weight of 0 is -2.943323
weight of 1 is 6.447541
weight of 2 is -3.244444
weight of 3 is -7.000000
used!
weight of 0 is -2.382924
weight of 1 is 6.447550
weight of 2 is -3.244444
weight of 3 is -6.000000
used!
deny
deny
weight of 0 is -1.822525
weight of 1 is 6.447569
weight of 2 is -3.244444
weight of 3 is -5.000000
used!
weight of 0 is -1.262125
weight of 1 is 6.447588
weight of 2 is -3.244444
weight of 3 is -4.000000
used!
deny
deny
weight of 0 is -0.701726
weight of 1 is 6.447606
weight of 2 is -3.244444
weight of 3 is -3.000000
used!
weight of 0 is -0.141327
weight of 1 is 6.447625
weight of 2 is -3.244444
weight of 3 is -2.000000
used!
deny
deny
weight of 0 is 0.419073
weight of 1 is 6.447644
weight of 2 is -3.244444
weight of 3 is -1.000000
used!
weight of 0 is 0.979473
weight of 1 is 6.447663
weight of 2 is -3.244444
weight of 3 is 0.000000
used!
accept
accept
weight of 0 is 1.539872
weight of 1 is 6.447682
weight of 2 is -3.244444
weight of 3 is 1.000000
used!
weight of 0 is 2.100272
weight of 1 is 6.447700
weight of 2 is -3.244444
weight of 3 is 2.000000
used!
accept
accept
accept
accept
accept
accept
accept
accept
accept
accept
weight of 0 is 1.554340
weight of 1 is 6.447644
weight of 2 is -3.244444
weight of 3 is 1.000000
not used!
accept
accept
accept
accept
accept
accept
accept
accept
accept
accept
accept
accept
weight of 0 is 1.008113
weight of 1 is 6.447625
weight of 2 is -3.422222
weight of 3 is 0.000000
not used!
weight of 0 is 0.461885
weight of 1 is 6.447606
weight of 2 is -3.600000
weight of 3 is -1.000000
not used!
weight of 0 is -0.084343
weight of 1 is 6.447588
weight of 2 is -3.777778
weight of 3 is -2.000000
not used!
accept
accept
weight of 0 is -0.622654
weight of 1 is 5.803257
weight of 2 is -3.777778
weight of 3 is -3.000000
not used!
weight of 0 is -1.160967
weight of 1 is 5.803062
weight of 2 is -4.311111
weight of 3 is -4.000000
not used!
deny
deny
deny
deny
weight of 0 is -1.699226
weight of 1 is 5.802022
weight of 2 is -5.377778
weight of 3 is -5.000000
not used!
deny
deny
deny
deny
accept
accept
deny
deny
deny
deny
deny
deny
deny
deny
deny
deny
deny
deny
deny
deny
deny
deny
deny
deny
deny
deny
deny
deny
accept
accept
accept
accept
weight of 0 is -1.184973
weight of 1 is 5.818308
weight of 2 is -5.377778
weight of 3 is -4.000000
used!
weight of 0 is -0.670721
weight of 1 is 5.834594
weight of 2 is -5.377778
weight of 3 is -3.000000
used!
deny
deny
accept
accept
deny
deny
accept
accept
accept
accept
deny
deny
weight of 0 is -0.156469
weight of 1 is 5.835064
weight of 2 is -5.377778
weight of 3 is -2.000000
used!
weight of 0 is 0.357784
weight of 1 is 5.835533
weight of 2 is -5.377778
weight of 3 is -1.000000
used!
deny
deny
weight of 0 is 0.872036
weight of 1 is 5.851766
weight of 2 is -5.377778
weight of 3 is 0.000000
used!
weight of 0 is 1.386289
weight of 1 is 5.867998
weight of 2 is -5.377778
weight of 3 is 1.000000
used!
accept
accept
weight of 0 is 1.900541
weight of 1 is 5.895056
weight of 2 is -5.377778
weight of 3 is 2.000000
used!
weight of 0 is 2.414794
weight of 1 is 5.922115
weight of 2 is -5.377778
weight of 3 is 3.000000
used!
accept
accept
accept
accept
accept
accept
accept
accept
accept
accept
accept
accept
accept
accept
accept
accept
accept
accept
accept
accept
accept
accept
accept
accept
accept
accept
accept
accept
accept
accept
accept
accept
accept
accept
accept
accept
accept
accept
accept
accept
accept
accept
accept
accept
accept
accept
accept
accept
accept
accept
weight of 0 is 1.854389
weight of 1 is 5.922058
weight of 2 is -5.377778
weight of 3 is 2.000000
not used!
accept
accept
accept
accept
accept
accept
weight of 0 is 1.316074
weight of 1 is 4.102379
weight of 2 is -5.377778
weight of 3 is 1.000000
not used!
weight of 0 is 0.777758
weight of 1 is 4.102317
weight of 2 is -5.733333
weight of 3 is 0.000000
not used!
accept
accept
deny
deny
accept
accept
deny
deny
accept
accept
accept
accept
accept
accept
accept
accept
accept
accept
deny
deny
deny
deny
accept
accept
accept
accept
accept
accept
deny
deny
accept
accept
deny
deny
deny
deny
accept
accept
accept
accept
accept
accept
accept
accept
deny
deny
accept
accept
deny
deny
accept
accept
accept
accept
deny
deny
accept
accept
accept
accept
accept
accept
accept
accept
weight of 0 is 1.293633
weight of 1 is 4.102376
weight of 2 is -5.555556
weight of 3 is 1.000000
used!
weight of 0 is 1.809509
weight of 1 is 4.102435
weight of 2 is -5.377778
weight of 3 is 2.000000
used!
accept
accept
accept
accept
deny
deny
deny
deny
accept
accept
accept
accept
accept
accept
accept
accept
deny
deny
accept
accept
weight of 0 is 1.295256
weight of 1 is 2.168059
weight of 2 is -5.377778
weight of 3 is 1.000000
not used!
accept
accept
accept
accept
weight of 0 is 0.757188
weight of 1 is 0.214635
weight of 2 is -6.600000
weight of 3 is 0.000000
not used!
deny
deny
deny
deny
accept
accept
deny
deny
deny
deny
weight of 0 is 0.242608
weight of 1 is -1.708952
weight of 2 is -6.955556
weight of 3 is -1.000000
not used!
deny
deny
deny
deny
deny
deny
deny
deny
weight of 0 is -0.271645
weight of 1 is -1.708971
weight of 2 is -6.955556
weight of 3 is -2.000000
not used!
deny
deny
weight of 0 is 0.288976
weight of 1 is -1.708953
weight of 2 is -5.711111
weight of 3 is -1.000000
used!
weight of 0 is 0.849597
weight of 1 is -1.708936
weight of 2 is -4.466667
weight of 3 is 0.000000
used!
accept
accept
weight of 0 is 1.410217
weight of 1 is 2.065144
weight of 2 is -3.311111
weight of 3 is 1.000000
used!
weight of 0 is 1.970838
weight of 1 is 5.839223
weight of 2 is -2.155556
weight of 3 is 2.000000
used!
accept
accept
accept
accept
weight of 0 is 2.531460
weight of 1 is 5.839234
weight of 2 is -0.911111
weight of 3 is 3.000000
used!
weight of 0 is 3.092083
weight of 1 is 5.839244
weight of 2 is 0.333333
weight of 3 is 4.000000
used!
weight of 0 is 2.577830
weight of 1 is 5.838643
weight of 2 is 0.333333
weight of 3 is 3.000000
not used!
accept
accept
accept
accept
weight of 0 is 2.063578
weight of 1 is 5.838061
weight of 2 is 0.333333
weight of 3 is 2.000000
not used!
weight of 0 is 1.549325
weight of 1 is 5.838023
weight of 2 is 0.333333
weight of 3 is 1.000000
not used!
accept
accept
weight of 0 is 1.035073
weight of 1 is 5.837741
weight of 2 is 0.333333
weight of 3 is 0.000000
not used!
weight of 0 is 0.520821
weight of 1 is 5.831579
weight of 2 is 0.333333
weight of 3 is -1.000000
not used!
weight of 0 is 0.006144
weight of 1 is 5.809797
weight of 2 is -0.200000
weight of 3 is -2.000000
not used!
accept
accept
deny
deny
deny
deny
deny
deny
weight of 0 is -0.508109
weight of 1 is 5.809083
weight of 2 is -0.200000
weight of 3 is -3.000000
not used!
deny
deny
deny
deny
weight of 0 is 0.006144
weight of 1 is 5.829731
weight of 2 is -0.200000
weight of 3 is -2.000000
used!
weight of 0 is 0.520396
weight of 1 is 5.850378
weight of 2 is -0.200000
weight of 3 is -1.000000
used!
weight of 0 is 0.006144
weight of 1 is 5.836964
weight of 2 is -0.200000
weight of 3 is -2.000000
not used!
deny
deny
weight of 0 is 0.520396
weight of 1 is 5.836983
weight of 2 is -0.200000
weight of 3 is -1.000000
used!
weight of 0 is 1.034649
weight of 1 is 5.837001
weight of 2 is -0.200000
weight of 3 is 0.000000
used!
accept
accept
weight of 0 is 0.520396
weight of 1 is 5.820149
weight of 2 is -0.200000
weight of 3 is -1.000000
not used!
accept
accept
deny
deny
deny
deny
deny
deny
weight of 0 is 1.081022
weight of 1 is 5.820206
weight of 2 is -0.200000
weight of 3 is 0.000000
used!
weight of 0 is 1.641647
weight of 1 is 5.820262
weight of 2 is -0.200000
weight of 3 is 1.000000
used!
accept
accept
weight of 0 is 2.202273
weight of 1 is 5.820281
weight of 2 is -0.200000
weight of 3 is 2.000000
used!
weight of 0 is 2.762898
weight of 1 is 5.820299
weight of 2 is -0.200000
weight of 3 is 3.000000
used!
accept
accept
accept
accept
accept
accept
weight of 0 is 2.248646
weight of 1 is 4.003022
weight of 2 is -0.200000
weight of 3 is 2.000000
not used!
accept
accept
weight of 0 is 1.756591
weight of 1 is 2.185692
weight of 2 is -0.266667
weight of 3 is 1.000000
not used!
weight of 0 is 1.241872
weight of 1 is 0.340780
weight of 2 is -0.444444
weight of 3 is 0.000000
not used!
accept
accept
accept
accept
accept
accept
accept
accept
accept
accept
accept
accept
weight of 0 is 0.727619
weight of 1 is 0.340723
weight of 2 is -0.444444
weight of 3 is -1.000000
not used!
accept
accept
deny
deny
deny
deny
deny
deny
weight of 0 is 1.241871
weight of 1 is 0.341287
weight of 2 is -0.444444
weight of 3 is 0.000000
used!
weight of 0 is 1.756124
weight of 1 is 0.341850
weight of 2 is -0.444444
weight of 3 is 1.000000
used!
accept
accept
accept
accept
weight of 0 is 1.240415
weight of 1 is 0.339369
weight of 2 is -0.600000
weight of 3 is 0.000000
not used!
accept
accept
weight of 0 is 0.748487
weight of 1 is -1.607011
weight of 2 is -0.866667
weight of 3 is -1.000000
not used!
weight of 0 is 0.232779
weight of 1 is -3.553382
weight of 2 is -1.800000
weight of 3 is -2.000000
not used!
weight of 0 is -0.281474
weight of 1 is -3.686408
weight of 2 is -1.800000
weight of 3 is -3.000000
not used!
deny
deny
deny
deny
deny
deny
deny
deny
weight of 0 is -0.827915
weight of 1 is -6.174400
weight of 2 is -2.866667
weight of 3 is -4.000000
not used!
deny
deny
weight of 0 is -0.313663
weight of 1 is -6.166209
weight of 2 is -2.866667
weight of 3 is -3.000000
used!
weight of 0 is 0.200590
weight of 1 is -6.158018
weight of 2 is -2.866667
weight of 3 is -2.000000
used!
deny
deny
deny
deny
deny
deny
weight of 0 is 0.714842
weight of 1 is -6.157680
weight of 2 is -2.866667
weight of 3 is -1.000000
used!
weight of 0 is 1.229094
weight of 1 is -6.157342
weight of 2 is -2.866667
weight of 3 is 0.000000
used!
accept
accept
accept
accept
weight of 0 is 1.743347
weight of 1 is -6.149413
weight of 2 is -2.866667
weight of 3 is 1.000000
used!
weight of 0 is 2.257599
weight of 1 is -6.141485
weight of 2 is -2.866667
weight of 3 is 2.000000
used!
accept
accept
accept
accept
weight of 0 is 2.771852
weight of 1 is -6.141466
weight of 2 is -2.866667
weight of 3 is 3.000000
used!
weight of 0 is 3.286104
weight of 1 is -6.141447
weight of 2 is -2.866667
weight of 3 is 4.000000
used!
accept
accept
weight of 0 is 2.771852
weight of 1 is -8.087677
weight of 2 is -2.866667
weight of 3 is 3.000000
not used!
accept
accept
weight of 0 is 2.233689
weight of 1 is -10.033871
weight of 2 is -2.955556
weight of 3 is 2.000000
not used!
deny
deny
deny
deny
accept
accept
accept
accept
weight of 0 is 2.780208
weight of 1 is -8.892220
weight of 2 is -2.600000
weight of 3 is 3.000000
used!
weight of 0 is 3.326727
weight of 1 is -7.750569
weight of 2 is -2.244444
weight of 3 is 4.000000
used!
accept
accept
accept
accept
weight of 0 is 2.811018
weight of 1 is -7.750734
weight of 2 is -2.244444
weight of 3 is 3.000000
not used!
weight of 0 is 2.297004
weight of 1 is -7.899755
weight of 2 is -2.244444
weight of 3 is 2.000000
not used!
accept
accept
deny
deny
deny
deny
weight of 0 is 1.781131
weight of 1 is -9.717107
weight of 2 is -2.333333
weight of 3 is 1.000000
not used!
accept
accept
weight of 0 is 1.234841
weight of 1 is -12.203605
weight of 2 is -2.488889
weight of 3 is 0.000000
not used!
accept
accept
weight of 0 is 1.781362
weight of 1 is -11.062092
weight of 2 is -2.311111
weight of 3 is 1.000000
used!
weight of 0 is 2.327884
weight of 1 is -9.920579
weight of 2 is -2.133333
weight of 3 is 2.000000
used!
accept
accept
weight of 0 is 1.789717
weight of 1 is -11.735466
weight of 2 is -2.400000
weight of 3 is 1.000000
not used!
deny
deny
weight of 0 is 2.350262
weight of 1 is -7.967367
weight of 2 is -1.688889
weight of 3 is 2.000000
used!
weight of 0 is 2.910807
weight of 1 is -4.199267
weight of 2 is -0.977778
weight of 3 is 3.000000
used!
accept
accept
accept
accept
accept
accept
accept
accept
weight of 0 is 3.471352
weight of 1 is -3.057698
weight of 2 is -0.977778
weight of 3 is 4.000000
used!
weight of 0 is 4.031897
weight of 1 is -1.916129
weight of 2 is -0.977778
weight of 3 is 5.000000
used!
accept
accept
weight of 0 is 3.505079
weight of 1 is -2.839897
weight of 2 is -1.377778
weight of 3 is 4.000000
not used!
accept
accept
accept
accept
accept
accept
weight of 0 is 2.978257
weight of 1 is -2.840225
weight of 2 is -1.377778
weight of 3 is 3.000000
not used!
accept
accept
accept
accept
accept
accept
accept
accept
weight of 0 is 2.464005
weight of 1 is -5.459852
weight of 2 is -1.377778
weight of 3 is 2.000000
not used!
accept
accept
accept
accept
accept
accept
deny
deny
deny
deny
weight of 0 is 1.949752
weight of 1 is -9.234007
weight of 2 is -1.377778
weight of 3 is 1.000000
not used!
accept
accept
weight of 0 is 2.496279
weight of 1 is -8.092816
weight of 2 is -1.022222
weight of 3 is 2.000000
used!
weight of 0 is 3.042806
weight of 1 is -6.951625
weight of 2 is -0.666667
weight of 3 is 3.000000
used!
deny
deny
deny
deny
accept
accept
weight of 0 is 3.589333
weight of 1 is -5.810472
weight of 2 is -0.311111
weight of 3 is 4.000000
used!
weight of 0 is 4.135861
weight of 1 is -4.669318
weight of 2 is 0.044444
weight of 3 is 5.000000
used!
accept
accept
weight of 0 is 4.696408
weight of 1 is -3.528106
weight of 2 is 0.044444
weight of 3 is 6.000000
used!
weight of 0 is 5.256955
weight of 1 is -2.386894
weight of 2 is 0.044444
weight of 3 is 7.000000
used!
accept
accept
accept
accept
accept
accept
accept
accept
accept
accept
accept
accept
weight of 0 is 4.696331
weight of 1 is -2.386950
weight of 2 is -0.133333
weight of 3 is 6.000000
not used!
accept
accept
accept
accept
accept
accept
accept
accept
accept
accept
accept
accept
accept
accept
weight of 0 is 4.135707
weight of 1 is -2.387042
weight of 2 is -0.133333
weight of 3 is 5.000000
not used!
accept
accept
accept
accept
accept
accept
accept
accept
accept
accept
accept
accept
accept
accept
accept
accept
accept
accept
accept
accept
accept
accept
accept
accept
accept
accept
accept
accept
accept
accept
accept
accept
accept
accept
accept
accept
accept
accept
accept
accept
accept
accept
accept
accept
accept
accept
accept
accept
accept
accept
accept
accept
accept
accept
accept
accept
accept
accept
accept
accept
accept
accept
accept
accept
accept
accept
accept
accept
accept
accept
accept
accept
accept
accept
accept
accept
accept
accept
weight of 0 is 3.575074
weight of 1 is -2.387098
weight of 2 is -0.133333
weight of 3 is 4.000000
not used!
accept
accept
weight of 0 is 3.014441
weight of 1 is -2.387136
weight of 2 is -0.133333
weight of 3 is 3.000000
not used!
accept
accept
accept
accept
weight of 0 is 2.500189
weight of 1 is -6.179743
weight of 2 is -0.133333
weight of 3 is 2.000000
not used!
accept
accept
accept
accept
accept
accept
accept
accept
deny
deny
accept
accept
weight of 0 is 3.060743
weight of 1 is -5.039369
weight of 2 is 0.400000
weight of 3 is 3.000000
used!
weight of 0 is 3.621298
weight of 1 is -3.898995
weight of 2 is 0.933333
weight of 3 is 4.000000
used!
weight of 0 is 3.107046
weight of 1 is -3.899540
weight of 2 is 0.933333
weight of 3 is 3.000000
not used!
accept
accept
accept
accept
accept
accept
accept
accept
accept
accept
accept
accept
accept
accept
accept
accept
accept
accept
accept
accept
accept
accept
accept
accept
accept
accept
accept
accept
accept
accept
accept
accept
accept
accept
accept
accept
weight of 0 is 2.592793
weight of 1 is -3.900442
weight of 2 is 0.933333
weight of 3 is 2.000000
not used!
accept
accept
accept
accept
accept
accept
accept
accept
deny
deny
weight of 0 is 2.078541
weight of 1 is -3.900761
weight of 2 is 0.933333
weight of 3 is 1.000000
not used!
accept
accept
deny
deny
accept
accept
accept
accept
weight of 0 is 2.625093
weight of 1 is -2.760697
weight of 2 is 1.288889
weight of 3 is 2.000000
used!
weight of 0 is 3.171644
weight of 1 is -1.620633
weight of 2 is 1.644444
weight of 3 is 3.000000
used!
weight of 0 is 2.657392
weight of 1 is -1.620878
weight of 2 is 1.644444
weight of 3 is 2.000000
not used!
accept
accept
accept
accept
accept
accept
accept
accept
weight of 0 is 2.110873
weight of 1 is -1.620892
weight of 2 is 1.644444
weight of 3 is 1.000000
not used!
accept
accept
weight of 0 is 1.564353
weight of 1 is -1.620913
weight of 2 is 1.466667
weight of 3 is 0.000000
not used!
accept
accept
weight of 0 is 1.017833
weight of 1 is -1.620934
weight of 2 is 1.111111
weight of 3 is -1.000000
not used!
deny
deny
weight of 0 is 0.471314
weight of 1 is -1.620948
weight of 2 is 1.111111
weight of 3 is -2.000000
not used!
deny
deny
deny
deny
deny
deny
weight of 0 is 1.031873
weight of 1 is -0.480973
weight of 2 is 1.288889
weight of 3 is -1.000000
used!
weight of 0 is 1.592432
weight of 1 is 0.659001
weight of 2 is 1.466667
weight of 3 is 0.000000
used!
accept
accept
accept
accept
weight of 0 is 2.138987
weight of 1 is 1.798938
weight of 2 is 1.644444
weight of 3 is 1.000000
used!
weight of 0 is 2.685542
weight of 1 is 2.938875
weight of 2 is 1.822222
weight of 3 is 2.000000
used!
accept
accept
weight of 0 is 3.246102
weight of 1 is 2.938894
weight of 2 is 2.000000
weight of 3 is 3.000000
used!
weight of 0 is 3.806661
weight of 1 is 2.938913
weight of 2 is 2.177778
weight of 3 is 4.000000
used!
accept
accept
weight of 0 is 3.260140
weight of 1 is 2.938892
weight of 2 is 1.822222
weight of 3 is 3.000000
not used!
accept
accept
accept
accept
weight of 0 is 2.713619
weight of 1 is 2.938878
weight of 2 is 1.822222
weight of 3 is 2.000000
not used!
accept
accept
accept
accept
accept
accept
accept
accept
accept
accept
accept
accept
weight of 0 is 2.167096
weight of 1 is 1.797459
weight of 2 is 1.644444
weight of 3 is 1.000000
not used!
weight of 0 is 1.620574
weight of 1 is 1.797438
weight of 2 is 1.288889
weight of 3 is 0.000000
not used!
accept
accept
accept
accept
accept
accept
accept
accept
accept
accept
accept
accept
weight of 0 is 1.074050
weight of 1 is 1.797381
weight of 2 is 1.288889
weight of 3 is -1.000000
not used!
accept
accept
accept
accept
weight of 0 is 0.527525
weight of 1 is 1.797360
weight of 2 is 1.111111
weight of 3 is -2.000000
not used!
weight of 0 is -0.018999
weight of 1 is 1.797339
weight of 2 is 0.755556
weight of 3 is -3.000000
not used!
deny
deny
deny
deny
weight of 0 is -0.565524
weight of 1 is 1.797325
weight of 2 is 0.755556
weight of 3 is -4.000000
not used!
deny
deny
weight of 0 is -0.018964
weight of 1 is 1.797381
weight of 2 is 0.933333
weight of 3 is -3.000000
used!
weight of 0 is 0.527597
weight of 1 is 1.797438
weight of 2 is 1.111111
weight of 3 is -2.000000
used!
deny
deny
weight of 0 is 1.074157
weight of 1 is 1.797459
weight of 2 is 1.466667
weight of 3 is -1.000000
used!
weight of 0 is 1.620718
weight of 1 is 1.797480
weight of 2 is 1.822222
weight of 3 is 0.000000
used!
weight of 0 is 1.074193
weight of 1 is 1.797459
weight of 2 is 1.644444
weight of 3 is -1.000000
not used!
deny
deny
weight of 0 is 1.620754
weight of 1 is 1.797473
weight of 2 is 1.644444
weight of 3 is 0.000000
used!
weight of 0 is 2.167315
weight of 1 is 1.797487
weight of 2 is 1.644444
weight of 3 is 1.000000
used!
accept
accept
weight of 0 is 2.713876
weight of 1 is 1.797508
weight of 2 is 1.822222
weight of 3 is 2.000000
used!
weight of 0 is 3.260438
weight of 1 is 1.797529
weight of 2 is 2.000000
weight of 3 is 3.000000
used!
accept
accept
accept
accept
weight of 0 is 3.806999
weight of 1 is 1.797550
weight of 2 is 2.355556
weight of 3 is 4.000000
used!
weight of 0 is 4.353560
weight of 1 is 1.797571
weight of 2 is 2.711111
weight of 3 is 5.000000
used!
accept
accept
accept
accept
weight of 0 is 3.807034
weight of 1 is 1.797515
weight of 2 is 2.355556
weight of 3 is 4.000000
not used!
accept
accept
accept
accept
weight of 0 is 3.260508
weight of 1 is 1.797501
weight of 2 is 2.355556
weight of 3 is 3.000000
not used!
accept
accept
accept
accept
weight of 0 is 2.713982
weight of 1 is 1.797480
weight of 2 is 2.177778
weight of 3 is 2.000000
not used!
accept
accept
accept
accept
accept
accept
accept
accept
weight of 0 is 2.167455
weight of 1 is 1.797445
weight of 2 is 2.000000
weight of 3 is 1.000000
not used!
accept
accept
accept
accept
weight of 0 is 1.620927
weight of 1 is 1.797409
weight of 2 is 1.822222
weight of 3 is 0.000000
not used!
accept
accept
accept
accept
accept
accept
accept
accept
weight of 0 is 1.074398
weight of 1 is 1.797353
weight of 2 is 1.466667
weight of 3 is -1.000000
not used!
deny
deny
deny
deny
weight of 0 is 0.527869
weight of 1 is 1.797339
weight of 2 is 1.466667
weight of 3 is -2.000000
not used!
deny
deny
weight of 0 is 1.074436
weight of 1 is 1.797395
weight of 2 is 1.644444
weight of 3 is -1.000000
used!
weight of 0 is 1.621002
weight of 1 is 1.797452
weight of 2 is 1.822222
weight of 3 is 0.000000
used!
weight of 0 is 1.074473
weight of 1 is 1.797430
weight of 2 is 1.644444
weight of 3 is -1.000000
not used!
deny
deny
weight of 0 is 1.621040
weight of 1 is 1.797452
weight of 2 is 2.000000
weight of 3 is 0.000000
used!
weight of 0 is 2.167607
weight of 1 is 1.797473
weight of 2 is 2.355556
weight of 3 is 1.000000
used!
accept
accept
weight of 0 is 2.714174
weight of 1 is 1.797487
weight of 2 is 2.355556
weight of 3 is 2.000000
used!
weight of 0 is 3.260741
weight of 1 is 1.797501
weight of 2 is 2.355556
weight of 3 is 3.000000
used!
accept
accept
accept
accept
weight of 0 is 3.807309
weight of 1 is 1.797522
weight of 2 is 2.533333
weight of 3 is 4.000000
used!
weight of 0 is 4.353876
weight of 1 is 1.797543
weight of 2 is 2.711111
weight of 3 is 5.000000
used!
weight of 0 is 3.807346
weight of 1 is 1.797487
weight of 2 is 2.711111
weight of 3 is 4.000000
not used!
accept
accept
accept
accept
weight of 0 is 3.260815
weight of 1 is 1.797466
weight of 2 is 2.533333
weight of 3 is 3.000000
not used!
accept
accept
weight of 0 is 2.714284
weight of 1 is 1.797445
weight of 2 is 2.177778
weight of 3 is 2.000000
not used!
accept
accept
weight of 0 is 2.167753
weight of 1 is 1.797430
weight of 2 is 2.177778
weight of 3 is 1.000000
not used!
weight of 0 is 1.621221
weight of 1 is 1.797374
weight of 2 is 2.000000
weight of 3 is 0.000000
not used!
accept
accept
weight of 0 is 1.074689
weight of 1 is 1.797353
weight of 2 is 1.644444
weight of 3 is -1.000000
not used!
deny
deny
weight of 0 is 0.528157
weight of 1 is 1.797339
weight of 2 is 1.644444
weight of 3 is -2.000000
not used!
deny
deny
deny
deny
weight of 0 is 1.074726
weight of 1 is 1.797353
weight of 2 is 1.644444
weight of 3 is -1.000000
used!
weight of 0 is 1.621297
weight of 1 is 1.797367
weight of 2 is 1.644444
weight of 3 is 0.000000
used!
accept
accept
weight of 0 is 2.167867
weight of 1 is 1.797388
weight of 2 is 1.822222
weight of 3 is 1.000000
used!
weight of 0 is 2.714437
weight of 1 is 1.797409
weight of 2 is 2.000000
weight of 3 is 2.000000
used!
accept
accept
accept
accept
weight of 0 is 3.261007
weight of 1 is 1.797430
weight of 2 is 2.355556
weight of 3 is 3.000000
used!
weight of 0 is 3.807578
weight of 1 is 1.797452
weight of 2 is 2.711111
weight of 3 is 4.000000
used!
weight of 0 is 3.261044
weight of 1 is 0.656596
weight of 2 is 2.533333
weight of 3 is 3.000000
not used!
weight of 0 is 2.714511
weight of 1 is 0.656575
weight of 2 is 2.177778
weight of 3 is 2.000000
not used!
weight of 0 is 2.167977
weight of 1 is 0.656561
weight of 2 is 2.177778
weight of 3 is 1.000000
not used!
weight of 0 is 1.621443
weight of 1 is 0.656540
weight of 2 is 2.000000
weight of 3 is 0.000000
not used!
accept
accept
accept
accept
accept
accept
weight of 0 is 1.074907
weight of 1 is 0.656484
weight of 2 is 2.000000
weight of 3 is -1.000000
not used!
accept
accept
deny
deny
weight of 0 is 0.528372
weight of 1 is 0.656463
weight of 2 is 1.822222
weight of 3 is -2.000000
not used!
weight of 0 is -0.018164
weight of 1 is 0.656441
weight of 2 is 1.466667
weight of 3 is -3.000000
not used!
deny
deny
weight of 0 is -0.564700
weight of 1 is 0.656427
weight of 2 is 1.466667
weight of 3 is -4.000000
not used!
deny
deny
weight of 0 is -0.018127
weight of 1 is 1.795655
weight of 2 is 1.822222
weight of 3 is -3.000000
used!
weight of 0 is 0.528445
weight of 1 is 2.934883
weight of 2 is 2.177778
weight of 3 is -2.000000
used!
accept
accept
accept
accept
weight of 0 is 1.075018
weight of 1 is 2.934897
weight of 2 is 2.177778
weight of 3 is -1.000000
used!
weight of 0 is 1.621591
weight of 1 is 2.934911
weight of 2 is 2.177778
weight of 3 is 0.000000
used!
accept
accept
weight of 0 is 2.168164
weight of 1 is 2.934932
weight of 2 is 2.355556
weight of 3 is 1.000000
used!
weight of 0 is 2.714737
weight of 1 is 2.934953
weight of 2 is 2.533333
weight of 3 is 2.000000
used!
weight of 0 is 2.168200
weight of 1 is 1.794267
weight of 2 is 2.355556
weight of 3 is 1.000000
not used!
weight of 0 is 1.621663
weight of 1 is 1.794246
weight of 2 is 2.000000
weight of 3 is 0.000000
not used!
accept
accept
weight of 0 is 1.075126
weight of 1 is 1.794232
weight of 2 is 2.000000
weight of 3 is -1.000000
not used!
weight of 0 is 0.528588
weight of 1 is 1.794211
weight of 2 is 1.822222
weight of 3 is -2.000000
not used!
accept
accept
accept
accept
weight of 0 is -0.017950
weight of 1 is 0.653602
weight of 2 is 1.466667
weight of 3 is -3.000000
not used!
deny
deny
weight of 0 is -0.564489
weight of 1 is 0.653588
weight of 2 is 1.466667
weight of 3 is -4.000000
not used!
deny
deny
weight of 0 is -1.111028
weight of 1 is 0.653567
weight of 2 is 1.288889
weight of 3 is -5.000000
not used!
weight of 0 is -1.657567
weight of 1 is 0.653546
weight of 2 is 0.933333
weight of 3 is -6.000000
not used!
deny
deny
weight of 0 is -1.110993
weight of 1 is 1.792750
weight of 2 is 0.933333
weight of 3 is -5.000000
used!
weight of 0 is -0.564418
weight of 1 is 2.931954
weight of 2 is 0.933333
weight of 3 is -4.000000
used!
deny
deny
weight of 0 is -0.017843
weight of 1 is 2.931976
weight of 2 is 1.111111
weight of 3 is -3.000000
used!
weight of 0 is 0.528732
weight of 1 is 2.931997
weight of 2 is 1.288889
weight of 3 is -2.000000
used!
deny
deny
weight of 0 is 1.075308
weight of 1 is 2.932018
weight of 2 is 1.644444
weight of 3 is -1.000000
used!
weight of 0 is 1.621883
weight of 1 is 2.932039
weight of 2 is 2.000000
weight of 3 is 0.000000
used!
accept
accept
accept
accept
weight of 0 is 2.168458
weight of 1 is 2.932053
weight of 2 is 2.000000
weight of 3 is 1.000000
used!
weight of 0 is 2.715034
weight of 1 is 2.932067
weight of 2 is 2.000000
weight of 3 is 2.000000
used!
weight of 0 is 2.168494
weight of 1 is 1.791529
weight of 2 is 2.000000
weight of 3 is 1.000000
not used!
weight of 0 is 1.621954
weight of 1 is 1.791508
weight of 2 is 1.822222
weight of 3 is 0.000000
not used!
weight of 0 is 1.075413
weight of 1 is 1.791487
weight of 2 is 1.466667
weight of 3 is -1.000000
not used!
deny
deny
weight of 0 is 0.528872
weight of 1 is 1.791473
weight of 2 is 1.466667
weight of 3 is -2.000000
not used!
deny
deny
weight of 0 is -0.031680
weight of 1 is 0.650955
weight of 2 is 1.466667
weight of 3 is -3.000000
not used!
deny
deny
weight of 0 is 0.514896
weight of 1 is 0.651012
weight of 2 is 1.822222
weight of 3 is -2.000000
used!
weight of 0 is 1.061473
weight of 1 is 0.651068
weight of 2 is 2.177778
weight of 3 is -1.000000
used!
deny
deny
deny
deny
weight of 0 is 1.608050
weight of 1 is 0.651082
weight of 2 is 2.177778
weight of 3 is 0.000000
used!
weight of 0 is 2.154627
weight of 1 is 0.651096
weight of 2 is 2.177778
weight of 3 is 1.000000
used!
accept
accept
weight of 0 is 2.701204
weight of 1 is 0.651118
weight of 2 is 2.355556
weight of 3 is 2.000000
used!
weight of 0 is 3.247781
weight of 1 is 0.651139
weight of 2 is 2.533333
weight of 3 is 3.000000
used!
weight of 0 is 2.701239
weight of 1 is -0.489341
weight of 2 is 2.355556
weight of 3 is 2.000000
not used!
accept
accept
weight of 0 is 3.247817
weight of 1 is 0.649765
weight of 2 is 2.711111
weight of 3 is 3.000000
used!
weight of 0 is 3.794394
weight of 1 is 1.788871
weight of 2 is 3.066667
weight of 3 is 4.000000
used!
accept
accept
weight of 0 is 3.247852
weight of 1 is 1.788849
weight of 2 is 2.711111
weight of 3 is 3.000000
not used!
weight of 0 is 2.701310
weight of 1 is 1.788835
weight of 2 is 2.711111
weight of 3 is 2.000000
not used!
weight of 0 is 2.154767
weight of 1 is 1.788814
weight of 2 is 2.533333
weight of 3 is 1.000000
not used!
accept
accept
weight of 0 is 1.608225
weight of 1 is 1.788779
weight of 2 is 2.533333
weight of 3 is 0.000000
not used!
accept
accept
accept
accept
accept
accept
accept
accept
accept
accept
weight of 0 is 1.061681
weight of 1 is 1.788723
weight of 2 is 2.355556
weight of 3 is -1.000000
not used!
weight of 0 is 0.515137
weight of 1 is 1.788701
weight of 2 is 2.000000
weight of 3 is -2.000000
not used!
weight of 0 is -0.031407
weight of 1 is 1.788687
weight of 2 is 2.000000
weight of 3 is -3.000000
not used!
deny
deny
deny
deny
deny
deny
weight of 0 is 0.515173
weight of 1 is 1.788744
weight of 2 is 2.355556
weight of 3 is -2.000000
used!
weight of 0 is 1.061753
weight of 1 is 1.788800
weight of 2 is 2.711111
weight of 3 is -1.000000
used!
accept
accept
accept
accept
weight of 0 is 1.608333
weight of 1 is 1.788814
weight of 2 is 2.711111
weight of 3 is 0.000000
used!
weight of 0 is 2.154913
weight of 1 is 1.788828
weight of 2 is 2.711111
weight of 3 is 1.000000
used!
weight of 0 is 1.608368
weight of 1 is 0.648466
weight of 2 is 2.533333
weight of 3 is 0.000000
not used!
accept
accept
weight of 0 is 2.154949
weight of 1 is 0.648487
weight of 2 is 2.711111
weight of 3 is 1.000000
used!
weight of 0 is 2.701530
weight of 1 is 0.648508
weight of 2 is 2.888889
weight of 3 is 2.000000
used!
accept
accept
weight of 0 is 2.154984
weight of 1 is 0.648487
weight of 2 is 2.533333
weight of 3 is 1.000000
not used!
weight of 0 is 1.608439
weight of 1 is 0.648473
weight of 2 is 2.533333
weight of 3 is 0.000000
not used!
weight of 0 is 1.061892
weight of 1 is 0.648452
weight of 2 is 2.355556
weight of 3 is -1.000000
not used!
deny
deny
deny
deny
deny
deny
weight of 0 is 1.608474
weight of 1 is 0.648487
weight of 2 is 2.355556
weight of 3 is 0.000000
used!
weight of 0 is 2.155056
weight of 1 is 0.648523
weight of 2 is 2.355556
weight of 3 is 1.000000
used!
accept
accept
weight of 0 is 2.701638
weight of 1 is 0.648544
weight of 2 is 2.533333
weight of 3 is 2.000000
used!
weight of 0 is 3.248220
weight of 1 is 0.648565
weight of 2 is 2.711111
weight of 3 is 3.000000
used!
accept
accept
weight of 0 is 3.794802
weight of 1 is 0.648586
weight of 2 is 3.066667
weight of 3 is 4.000000
used!
weight of 0 is 4.341384
weight of 1 is 0.648607
weight of 2 is 3.422222
weight of 3 is 5.000000
used!
accept
accept
weight of 0 is 3.794837
weight of 1 is 0.648551
weight of 2 is 3.422222
weight of 3 is 4.000000
not used!
weight of 0 is 3.248290
weight of 1 is 0.648530
weight of 2 is 3.244444
weight of 3 is 3.000000
not used!
accept
accept
weight of 0 is 2.701743
weight of 1 is 0.648508
weight of 2 is 2.888889
weight of 3 is 2.000000
not used!
accept
accept
accept
accept
accept
accept
accept
accept
accept
accept
accept
accept
weight of 0 is 2.155194
weight of 1 is -0.491692
weight of 2 is 2.888889
weight of 3 is 1.000000
not used!
weight of 0 is 1.608646
weight of 1 is -0.491713
weight of 2 is 2.711111
weight of 3 is 0.000000
not used!
accept
accept
accept
accept
weight of 0 is 1.062097
weight of 1 is -0.491734
weight of 2 is 2.355556
weight of 3 is -1.000000
not used!
deny
deny
weight of 0 is 0.515548
weight of 1 is -0.491748
weight of 2 is 2.355556
weight of 3 is -2.000000
not used!
weight of 0 is -0.031002
weight of 1 is -0.491769
weight of 2 is 2.177778
weight of 3 is -3.000000
not used!
deny
deny
weight of 0 is 0.515584
weight of 1 is 0.646982
weight of 2 is 2.355556
weight of 3 is -2.000000
used!
weight of 0 is 1.062169
weight of 1 is 1.785733
weight of 2 is 2.533333
weight of 3 is -1.000000
used!
deny
deny
deny
deny
weight of 0 is 1.608755
weight of 1 is 1.785768
weight of 2 is 2.533333
weight of 3 is 0.000000
used!
weight of 0 is 2.155341
weight of 1 is 1.785804
weight of 2 is 2.533333
weight of 3 is 1.000000
used!
accept
accept
accept
accept
weight of 0 is 2.701927
weight of 1 is 1.785825
weight of 2 is 2.711111
weight of 3 is 2.000000
used!
weight of 0 is 3.248513
weight of 1 is 1.785846
weight of 2 is 2.888889
weight of 3 is 3.000000
used!
weight of 0 is 2.701963
weight of 1 is 1.785789
weight of 2 is 2.533333
weight of 3 is 2.000000
not used!
weight of 0 is 2.155412
weight of 1 is 1.785775
weight of 2 is 2.533333
weight of 3 is 1.000000
not used!
weight of 0 is 1.608862
weight of 1 is 1.785754
weight of 2 is 2.355556
weight of 3 is 0.000000
not used!
accept
accept
accept
accept
weight of 0 is 1.062310
weight of 1 is 1.785740
weight of 2 is 2.355556
weight of 3 is -1.000000
not used!
weight of 0 is 0.515758
weight of 1 is 1.785719
weight of 2 is 2.177778
weight of 3 is -2.000000
not used!
accept
accept
accept
accept
deny
deny
weight of 0 is -0.030796
weight of 1 is 1.785663
weight of 2 is 1.822222
weight of 3 is -3.000000
not used!
deny
deny
weight of 0 is -0.577350
weight of 1 is 1.785649
weight of 2 is 1.822222
weight of 3 is -4.000000
not used!
deny
deny
weight of 0 is -0.030761
weight of 1 is 1.785705
weight of 2 is 1.822222
weight of 3 is -3.000000
used!
weight of 0 is 0.515828
weight of 1 is 1.785761
weight of 2 is 1.822222
weight of 3 is -2.000000
used!
deny
deny
weight of 0 is 1.062416
weight of 1 is 1.785782
weight of 2 is 2.000000
weight of 3 is -1.000000
used!
weight of 0 is 1.609005
weight of 1 is 1.785804
weight of 2 is 2.177778
weight of 3 is 0.000000
used!
accept
accept
accept
accept
weight of 0 is 2.155594
weight of 1 is 1.785825
weight of 2 is 2.533333
weight of 3 is 1.000000
used!
weight of 0 is 2.702184
weight of 1 is 1.785846
weight of 2 is 2.888889
weight of 3 is 2.000000
used!
weight of 0 is 2.155629
weight of 1 is 0.645913
weight of 2 is 2.533333
weight of 3 is 1.000000
not used!
weight of 0 is 1.609073
weight of 1 is 0.645899
weight of 2 is 2.533333
weight of 3 is 0.000000
not used!
accept
accept
accept
accept
accept
accept
accept
accept
weight of 0 is 1.062517
weight of 1 is 0.645843
weight of 2 is 2.355556
weight of 3 is -1.000000
not used!
weight of 0 is 0.515960
weight of 1 is 0.645822
weight of 2 is 2.000000
weight of 3 is -2.000000
not used!
weight of 0 is -0.030596
weight of 1 is 0.645808
weight of 2 is 2.000000
weight of 3 is -3.000000
not used!
deny
deny
weight of 0 is -0.577153
weight of 1 is 0.645787
weight of 2 is 1.822222
weight of 3 is -4.000000
not used!
deny
deny
weight of 0 is -1.123710
weight of 1 is 0.645766
weight of 2 is 1.466667
weight of 3 is -5.000000
not used!
deny
deny
weight of 0 is -0.577119
weight of 1 is 0.645822
weight of 2 is 1.466667
weight of 3 is -4.000000
used!
weight of 0 is -0.030527
weight of 1 is 0.645878
weight of 2 is 1.466667
weight of 3 is -3.000000
used!
weight of 0 is -0.577085
weight of 1 is 0.645864
weight of 2 is 1.466667
weight of 3 is -4.000000
not used!
deny
deny
weight of 0 is -0.030493
weight of 1 is 0.645885
weight of 2 is 1.644444
weight of 3 is -3.000000
used!
weight of 0 is 0.516098
weight of 1 is 0.645906
weight of 2 is 1.822222
weight of 3 is -2.000000
used!
deny
deny
deny
deny
weight of 0 is 1.062690
weight of 1 is 0.645928
weight of 2 is 2.177778
weight of 3 is -1.000000
used!
weight of 0 is 1.609282
weight of 1 is 0.645949
weight of 2 is 2.533333
weight of 3 is 0.000000
used!
accept
accept
accept
accept
weight of 0 is 2.155874
weight of 1 is 0.645963
weight of 2 is 2.533333
weight of 3 is 1.000000
used!
weight of 0 is 2.702467
weight of 1 is 0.645977
weight of 2 is 2.533333
weight of 3 is 2.000000
used!
weight of 0 is 2.155908
weight of 1 is 0.645920
weight of 2 is 2.355556
weight of 3 is 1.000000
not used!
accept
accept
accept
accept
accept
accept
weight of 0 is 1.609350
weight of 1 is 0.645899
weight of 2 is 2.000000
weight of 3 is 0.000000
not used!
accept
accept
weight of 0 is 1.062791
weight of 1 is 0.645885
weight of 2 is 2.000000
weight of 3 is -1.000000
not used!
deny
deny
weight of 0 is 0.516232
weight of 1 is 0.645864
weight of 2 is 1.822222
weight of 3 is -2.000000
not used!
deny
deny
deny
deny
weight of 0 is 1.062826
weight of 1 is 0.645885
weight of 2 is 2.177778
weight of 3 is -1.000000
used!
weight of 0 is 1.609420
weight of 1 is 0.645906
weight of 2 is 2.533333
weight of 3 is 0.000000
used!
weight of 0 is 1.062861
weight of 1 is 0.645885
weight of 2 is 2.177778
weight of 3 is -1.000000
not used!
deny
deny
weight of 0 is 1.609455
weight of 1 is 0.645899
weight of 2 is 2.177778
weight of 3 is 0.000000
used!
weight of 0 is 2.156049
weight of 1 is 0.645913
weight of 2 is 2.177778
weight of 3 is 1.000000
used!
weight of 0 is 1.609490
weight of 1 is 0.645899
weight of 2 is 2.177778
weight of 3 is 0.000000
not used!
accept
accept
weight of 0 is 2.156084
weight of 1 is 0.645920
weight of 2 is 2.355556
weight of 3 is 1.000000
used!
weight of 0 is 2.702678
weight of 1 is 0.645942
weight of 2 is 2.533333
weight of 3 is 2.000000
used!
accept
accept
weight of 0 is 3.249273
weight of 1 is 0.645963
weight of 2 is 2.888889
weight of 3 is 3.000000
used!
weight of 0 is 3.795868
weight of 1 is 0.645984
weight of 2 is 3.244444
weight of 3 is 4.000000
used!
accept
accept
accept
accept
accept
accept
accept
accept
weight of 0 is 3.249306
weight of 1 is 0.645970
weight of 2 is 3.244444
weight of 3 is 3.000000
not used!
accept
accept
accept
accept
weight of 0 is 2.702744
weight of 1 is 0.645913
weight of 2 is 3.066667
weight of 3 is 2.000000
not used!
weight of 0 is 2.156181
weight of 1 is 0.645892
weight of 2 is 2.711111
weight of 3 is 1.000000
not used!
weight of 0 is 1.609618
weight of 1 is 0.645878
weight of 2 is 2.711111
weight of 3 is 0.000000
not used!
weight of 0 is 1.063055
weight of 1 is 0.645857
weight of 2 is 2.533333
weight of 3 is -1.000000
not used!
deny
deny
weight of 0 is 0.516492
weight of 1 is 0.645836
weight of 2 is 2.177778
weight of 3 is -2.000000
not used!
deny
deny
weight of 0 is -0.030072
weight of 1 is 0.645822
weight of 2 is 2.177778
weight of 3 is -3.000000
not used!
deny
deny
weight of 0 is -0.576636
weight of 1 is -0.493643
weight of 2 is 2.000000
weight of 3 is -4.000000
not used!
deny
deny
weight of 0 is -0.030039
weight of 1 is 0.644732
weight of 2 is 2.177778
weight of 3 is -3.000000
used!
weight of 0 is 0.516559
weight of 1 is 1.783108
weight of 2 is 2.355556
weight of 3 is -2.000000
used!
weight of 0 is -0.030006
weight of 1 is 1.783086
weight of 2 is 2.000000
weight of 3 is -3.000000
not used!
deny
deny
weight of 0 is -0.576570
weight of 1 is 1.783072
weight of 2 is 2.000000
weight of 3 is -4.000000
not used!
deny
deny
weight of 0 is -0.029972
weight of 1 is 1.783093
weight of 2 is 2.355556
weight of 3 is -3.000000
used!
weight of 0 is 0.516625
weight of 1 is 1.783115
weight of 2 is 2.711111
weight of 3 is -2.000000
used!
weight of 0 is -0.029939
weight of 1 is 1.783093
weight of 2 is 2.533333
weight of 3 is -3.000000
not used!
deny
deny
weight of 0 is 0.516658
weight of 1 is 1.783108
weight of 2 is 2.533333
weight of 3 is -2.000000
used!
weight of 0 is 1.063256
[...]
used!
weight of 0 is 8.510083
weight of 1 is -4.569626
weight of 2 is -6.377778
weight of 3 is -16.000000
used!
deny
deny
deny
deny
deny
deny
weight of 0 is 8.565212
weight of 1 is -4.512078
weight of 2 is -5.666667
weight of 3 is -15.000000
used!
weight of 0 is 8.620342
weight of 1 is -4.454531
weight of 2 is -4.955556
weight of 3 is -14.000000
used!
deny
deny
deny
deny
deny
deny
weight of 0 is 8.675499
weight of 1 is -4.454509
weight of 2 is -4.066667
weight of 3 is -13.000000
used!
weight of 0 is 8.730656
weight of 1 is -4.454488
weight of 2 is -3.177778
weight of 3 is -12.000000
used!
deny
deny
weight of 0 is 8.786065
weight of 1 is -4.454430
weight of 2 is -1.933333
weight of 3 is -11.000000
used!
weight of 0 is 8.841475
weight of 1 is -4.454371
weight of 2 is -0.688889
weight of 3 is -10.000000
used!
deny
deny
weight of 0 is 8.896884
weight of 1 is -4.454366
weight of 2 is -0.511111
weight of 3 is -9.000000
used!
weight of 0 is 8.952293
weight of 1 is -4.454361
weight of 2 is -0.333333
weight of 3 is -8.000000
used!
deny
deny
weight of 0 is 9.007450
weight of 1 is -4.454340
weight of 2 is 0.733333
weight of 3 is -7.000000
used!
weight of 0 is 9.062607
weight of 1 is -4.454319
weight of 2 is 1.800000
weight of 3 is -6.000000
used!
deny
deny
weight of 0 is 9.118035
weight of 1 is -4.454303
weight of 2 is 1.977778
weight of 3 is -5.000000
used!
weight of 0 is 9.173464
weight of 1 is -4.454286
weight of 2 is 2.155556
weight of 3 is -4.000000
used!
deny
deny
deny
deny
weight of 0 is 9.225956
weight of 1 is -4.454162
weight of 2 is 3.222222
weight of 3 is -3.000000
used!
weight of 0 is 9.278449
weight of 1 is -4.454037
weight of 2 is 4.288889
weight of 3 is -2.000000
used!
deny
deny
weight of 0 is 9.333878
weight of 1 is -4.454021
weight of 2 is 5.177778
weight of 3 is -1.000000
used!
weight of 0 is 9.389308
weight of 1 is -4.454004
weight of 2 is 6.066667
weight of 3 is 0.000000
used!
deny
deny
accept
accept
accept
accept
accept
accept
accept
accept
weight of 0 is 9.394334
weight of 1 is -0.459617
weight of 2 is 7.311111
weight of 3 is 1.000000
used!
weight of 0 is 9.399361
weight of 1 is 3.534770
weight of 2 is 8.555556
weight of 3 is 2.000000
used!
accept
accept
accept
accept
weight of 0 is 10.007410
weight of 1 is 3.534793
weight of 2 is 9.088889
weight of 3 is 3.000000
used!
weight of 0 is 10.615460
weight of 1 is 3.534817
weight of 2 is 9.622222
weight of 3 is 4.000000
used!
accept
accept
weight of 0 is 10.613837
weight of 1 is 3.534729
weight of 2 is 8.288889
weight of 3 is 3.000000
not used!
accept
accept
weight of 0 is 10.669247
weight of 1 is 3.534809
weight of 2 is 8.644444
weight of 3 is 4.000000
used!
weight of 0 is 10.724656
weight of 1 is 3.534888
weight of 2 is 9.000000
weight of 3 is 5.000000
used!
accept
accept
accept
accept
weight of 0 is 10.722997
weight of 1 is 3.534850
weight of 2 is 7.755556
weight of 3 is 4.000000
not used!
weight of 0 is 10.721518
weight of 1 is 3.534584
weight of 2 is 7.755556
weight of 3 is 3.000000
not used!
accept
accept
weight of 0 is 10.163280
weight of 1 is 3.534544
weight of 2 is 6.511111
weight of 3 is 2.000000
not used!
weight of 0 is 9.555231
weight of 1 is -0.517182
weight of 2 is 6.333333
weight of 3 is 1.000000
not used!
accept
accept
accept
accept
weight of 0 is 9.540104
weight of 1 is -6.208809
weight of 2 is 6.333333
weight of 3 is 0.000000
not used!
weight of 0 is 9.484688
weight of 1 is -11.843040
weight of 2 is 6.333333
weight of 3 is -1.000000
not used!
weight of 0 is 9.469561
weight of 1 is -16.952240
weight of 2 is 6.333333
weight of 3 is -2.000000
not used!
weight of 0 is 9.454435
weight of 1 is -17.659600
weight of 2 is 6.333333
weight of 3 is -3.000000
not used!
weight of 0 is 9.404195
weight of 1 is -23.497027
weight of 2 is 5.444444
weight of 3 is -4.000000
not used!
weight of 0 is 8.796144
weight of 1 is -23.533634
weight of 2 is 5.266667
weight of 3 is -5.000000
not used!
weight of 0 is 8.748319
weight of 1 is -23.533655
weight of 2 is 5.266667
weight of 3 is -6.000000
not used!
deny
deny
deny
deny
deny
deny
deny
deny
deny
deny
accept
accept
weight of 0 is 8.796145
weight of 1 is -23.533634
weight of 2 is 5.266667
weight of 3 is -5.000000
used!
weight of 0 is 8.843971
weight of 1 is -23.533613
weight of 2 is 5.266667
weight of 3 is -4.000000
used!
deny
deny
deny
deny
accept
accept
accept
accept
accept
accept
accept
accept
deny
deny
accept
accept
accept
accept
accept
accept
accept
accept
weight of 0 is 8.235919
weight of 1 is -23.533657
weight of 2 is 4.733333
weight of 3 is -5.000000
not used!
deny
deny
weight of 0 is 7.630013
weight of 1 is -23.533669
weight of 2 is 3.844444
weight of 3 is -6.000000
not used!
weight of 0 is 7.025739
weight of 1 is -23.533683
weight of 2 is 2.600000
weight of 3 is -7.000000
not used!
deny
deny
deny
deny
weight of 0 is 7.070663
weight of 1 is -23.329205
weight of 2 is 2.777778
weight of 3 is -6.000000
used!
weight of 0 is 7.115588
weight of 1 is -23.124726
weight of 2 is 2.955556
weight of 3 is -5.000000
used!
deny
deny
weight of 0 is 7.170748
weight of 1 is -23.124705
weight of 2 is 4.200000
weight of 3 is -4.000000
used!
weight of 0 is 7.225908
weight of 1 is -23.124684
weight of 2 is 5.444444
weight of 3 is -3.000000
used!
weight of 0 is 6.621635
weight of 1 is -23.124692
weight of 2 is 4.288889
weight of 3 is -4.000000
not used!
deny
deny
weight of 0 is 6.676769
weight of 1 is -23.124662
weight of 2 is 5.355556
weight of 3 is -3.000000
used!
weight of 0 is 6.731902
weight of 1 is -23.124631
weight of 2 is 6.422222
weight of 3 is -2.000000
used!
deny
deny
accept
accept
weight of 0 is 6.787062
weight of 1 is -23.124610
weight of 2 is 6.422222
weight of 3 is -1.000000
used!
weight of 0 is 6.842223
weight of 1 is -23.124589
weight of 2 is 6.422222
weight of 3 is 0.000000
used!
weight of 0 is 6.236036
weight of 1 is -23.124601
weight of 2 is 5.177778
weight of 3 is -1.000000
not used!
accept
accept
weight of 0 is 6.291449
weight of 1 is -23.124523
weight of 2 is 5.355556
weight of 3 is 0.000000
used!
weight of 0 is 6.346862
weight of 1 is -23.124446
weight of 2 is 5.533333
weight of 3 is 1.000000
used!
weight of 0 is 5.740676
weight of 1 is -23.124483
weight of 2 is 4.288889
weight of 3 is 0.000000
not used!
accept
accept
weight of 0 is 5.796090
weight of 1 is -23.124464
weight of 2 is 4.288889
weight of 3 is 1.000000
used!
weight of 0 is 5.851505
weight of 1 is -23.124446
weight of 2 is 4.288889
weight of 3 is 2.000000
used!
weight of 0 is 5.245319
weight of 1 is -23.124464
weight of 2 is 3.044444
weight of 3 is 1.000000
not used!
weight of 0 is 4.640478
weight of 1 is -23.124622
weight of 2 is 2.688889
weight of 3 is 0.000000
not used!
accept
accept
weight of 0 is 4.689665
weight of 1 is -23.124570
weight of 2 is 2.911111
weight of 3 is 1.000000
used!
weight of 0 is 4.738852
weight of 1 is -23.124517
weight of 2 is 3.133333
weight of 3 is 2.000000
used!
accept
accept
weight of 0 is 4.683439
weight of 1 is -23.124522
weight of 2 is 1.888889
weight of 3 is 1.000000
not used!
weight of 0 is 4.628020
weight of 1 is -23.124602
weight of 2 is 1.711111
weight of 3 is 0.000000
not used!
accept
accept
weight of 0 is 4.577293
weight of 1 is -23.124628
weight of 2 is 1.711111
weight of 3 is -1.000000
not used!
deny
deny
weight of 0 is 3.969239
weight of 1 is -23.124705
weight of 2 is 1.533333
weight of 3 is -2.000000
not used!
deny
deny
deny
deny
deny
deny
weight of 0 is 4.017723
weight of 1 is -17.957306
weight of 2 is 2.600000
weight of 3 is -1.000000
used!
weight of 0 is 4.066207
weight of 1 is -12.789907
weight of 2 is 3.666667
weight of 3 is 0.000000
used!
accept
accept
deny
deny
deny
deny
accept
accept
accept
accept
weight of 0 is 4.011701
weight of 1 is -12.818679
weight of 2 is 2.422222
weight of 3 is -1.000000
not used!
deny
deny
weight of 0 is 3.962464
weight of 1 is -12.818738
weight of 2 is 1.711111
weight of 3 is -2.000000
not used!
weight of 0 is 3.354409
weight of 1 is -12.818773
weight of 2 is 0.822222
weight of 3 is -3.000000
not used!
deny
deny
deny
deny
deny
deny
deny
deny
deny
deny
weight of 0 is 3.962465
weight of 1 is -7.585893
weight of 2 is 1.000000
weight of 3 is -2.000000
used!
weight of 0 is 4.570521
weight of 1 is -2.353014
weight of 2 is 1.177778
weight of 3 is -1.000000
used!
accept
accept
deny
deny
accept
accept
deny
deny
deny
deny
deny
deny
weight of 0 is 4.625888
weight of 1 is -2.352913
weight of 2 is 1.355556
weight of 3 is 0.000000
used!
weight of 0 is 4.681255
weight of 1 is -2.352812
weight of 2 is 1.533333
weight of 3 is 1.000000
used!
accept
accept
accept
accept
deny
deny
accept
accept
deny
deny
deny
deny
weight of 0 is 4.625888
weight of 1 is -2.352816
weight of 2 is 0.288889
weight of 3 is 0.000000
not used!
weight of 0 is 4.570515
weight of 1 is -2.352896
weight of 2 is 0.111111
weight of 3 is -1.000000
not used!
accept
accept
deny
deny
deny
deny
weight of 0 is 4.625901
weight of 1 is 2.847261
weight of 2 is 0.644444
weight of 3 is 0.000000
used!
weight of 0 is 4.681287
weight of 1 is 8.047418
weight of 2 is 1.177778
weight of 3 is 1.000000
used!
weight of 0 is 4.676680
weight of 1 is 6.806514
weight of 2 is 0.111111
weight of 3 is 0.000000
not used!
accept
accept
accept
accept
weight of 0 is 4.725918
weight of 1 is 6.806572
weight of 2 is 0.466667
weight of 3 is 1.000000
used!
weight of 0 is 4.775155
weight of 1 is 6.806631
weight of 2 is 0.822222
weight of 3 is 2.000000
used!
accept
accept
weight of 0 is 5.383212
weight of 1 is 8.082868
weight of 2 is 2.066667
weight of 3 is 3.000000
used!
weight of 0 is 5.991268
weight of 1 is 9.359104
weight of 2 is 3.311111
weight of 3 is 4.000000
used!
weight of 0 is 5.384222
weight of 1 is 9.330240
weight of 2 is 3.311111
weight of 3 is 3.000000
not used!
accept
accept
weight of 0 is 5.369096
weight of 1 is 3.976034
weight of 2 is 3.311111
weight of 3 is 2.000000
not used!
weight of 0 is 5.318365
weight of 1 is 3.976003
weight of 2 is 3.311111
weight of 3 is 1.000000
not used!
weight of 0 is 4.710307
weight of 1 is 3.975921
weight of 2 is 2.777778
weight of 3 is 0.000000
not used!
accept
accept
accept
accept
accept
accept
accept
accept
accept
accept
accept
accept
accept
accept
accept
accept
weight of 0 is 4.655801
weight of 1 is 3.946970
weight of 2 is 2.244444
weight of 3 is -1.000000
not used!
weight of 0 is 4.601366
weight of 1 is 3.941205
weight of 2 is 1.533333
weight of 3 is -2.000000
not used!
weight of 0 is 4.546934
weight of 1 is 3.940946
weight of 2 is 0.466667
weight of 3 is -3.000000
not used!
weight of 0 is 4.544224
weight of 1 is -0.571214
weight of 2 is -0.555556
weight of 3 is -4.000000
not used!
weight of 0 is 4.495455
weight of 1 is -5.083687
weight of 2 is -1.088889
weight of 3 is -5.000000
not used!
weight of 0 is 4.446685
weight of 1 is -5.083741
weight of 2 is -1.444444
weight of 3 is -6.000000
not used!
weight of 0 is 3.838626
weight of 1 is -5.083788
weight of 2 is -1.622222
weight of 3 is -7.000000
not used!
deny
deny
deny
deny
deny
deny
deny
deny
weight of 0 is 3.893999
weight of 1 is -5.083725
weight of 2 is -0.733333
weight of 3 is -6.000000
used!
weight of 0 is 3.949372
weight of 1 is -5.083661
weight of 2 is 0.155556
weight of 3 is -5.000000
used!
deny
deny
weight of 0 is 4.004490
weight of 1 is -5.022227
weight of 2 is 0.333333
weight of 3 is -4.000000
used!
weight of 0 is 4.059607
weight of 1 is -4.960793
weight of 2 is 0.511111
weight of 3 is -3.000000
used!
deny
deny
weight of 0 is 4.114725
weight of 1 is -4.960771
weight of 2 is 0.866667
weight of 3 is -2.000000
used!
weight of 0 is 4.169843
weight of 1 is -4.960750
weight of 2 is 1.222222
weight of 3 is -1.000000
used!
deny
deny
deny
deny
weight of 0 is 4.225214
weight of 1 is -4.960724
weight of 2 is 1.222222
weight of 3 is 0.000000
used!
weight of 0 is 4.280585
weight of 1 is -4.960699
weight of 2 is 1.222222
weight of 3 is 1.000000
used!
deny
deny
deny
deny
deny
deny
weight of 0 is 4.335940
weight of 1 is -4.960621
weight of 2 is 1.400000
weight of 3 is 2.000000
used!
weight of 0 is 4.391296
weight of 1 is -4.960544
weight of 2 is 1.577778
weight of 3 is 3.000000
used!
deny
deny
accept
accept
deny
deny
accept
accept
accept
accept
accept
accept
accept
accept
accept
accept
accept
accept
weight of 0 is 4.376169
weight of 1 is -4.960562
weight of 2 is 1.577778
weight of 3 is 2.000000
not used!
accept
accept
weight of 0 is 4.325649
weight of 1 is -4.968138
weight of 2 is 1.400000
weight of 3 is 1.000000
not used!
accept
accept
accept
accept
accept
accept
accept
accept
accept
accept
accept
accept
deny
deny
weight of 0 is 4.277125
weight of 1 is -5.129768
weight of 2 is 1.400000
weight of 3 is 0.000000
not used!
weight of 0 is 4.223162
weight of 1 is -5.129878
weight of 2 is 1.400000
weight of 3 is -1.000000
not used!
deny
deny
weight of 0 is 4.167892
weight of 1 is -5.234791
weight of 2 is 1.044444
weight of 3 is -2.000000
not used!
deny
deny
deny
deny
deny
deny
accept
accept
weight of 0 is 4.218626
weight of 1 is -5.234775
weight of 2 is 1.044444
weight of 3 is -1.000000
used!
weight of 0 is 4.269361
weight of 1 is -5.234758
weight of 2 is 1.044444
weight of 3 is 0.000000
used!
weight of 0 is 4.213945
weight of 1 is -5.242806
weight of 2 is 0.866667
weight of 3 is -1.000000
not used!
weight of 0 is 4.158529
weight of 1 is -5.242811
weight of 2 is -0.377778
weight of 3 is -2.000000
not used!
weight of 0 is 4.103115
weight of 1 is -5.242879
weight of 2 is -0.733333
weight of 3 is -3.000000
not used!
weight of 0 is 4.047681
weight of 1 is -5.242895
weight of 2 is -0.911111
weight of 3 is -4.000000
not used!
weight of 0 is 4.002745
weight of 1 is -5.243555
weight of 2 is -1.266667
weight of 3 is -5.000000
not used!
weight of 0 is 3.947600
weight of 1 is -5.243586
weight of 2 is -2.511111
weight of 3 is -6.000000
not used!
deny
deny
deny
deny
deny
deny
deny
deny
weight of 0 is 4.002738
weight of 1 is -0.068120
weight of 2 is -2.333333
weight of 3 is -5.000000
used!
weight of 0 is 4.057876
weight of 1 is 5.107346
weight of 2 is -2.155556
weight of 3 is -4.000000
used!
deny
deny
deny
deny
deny
deny
weight of 0 is 4.665937
weight of 1 is 5.107365
weight of 2 is -1.622222
weight of 3 is -3.000000
used!
weight of 0 is 5.273999
weight of 1 is 5.107384
weight of 2 is -1.088889
weight of 3 is -2.000000
used!
accept
accept
weight of 0 is 5.882060
weight of 1 is 5.165136
weight of 2 is -0.555556
weight of 3 is -1.000000
used!
weight of 0 is 6.490121
weight of 1 is 5.222888
weight of 2 is -0.022222
weight of 3 is 0.000000
used!
accept
accept
weight of 0 is 6.545286
weight of 1 is 5.264927
weight of 2 is 0.333333
weight of 3 is 1.000000
used!
weight of 0 is 6.600451
weight of 1 is 5.306966
weight of 2 is 0.688889
weight of 3 is 2.000000
used!
accept
accept
accept
accept
accept
accept
accept
accept
weight of 0 is 5.992647
weight of 1 is 5.306940
weight of 2 is 0.688889
weight of 3 is 1.000000
not used!
accept
accept
accept
accept
accept
accept
weight of 0 is 5.977521
weight of 1 is 0.116533
weight of 2 is 0.688889
weight of 3 is 0.000000
not used!
accept
accept
accept
accept
weight of 0 is 5.922100
weight of 1 is -5.073974
weight of 2 is -0.377778
weight of 3 is -1.000000
not used!
weight of 0 is 5.866675
weight of 1 is -5.074012
weight of 2 is -1.444444
weight of 3 is -2.000000
not used!
deny
deny
weight of 0 is 5.812906
weight of 1 is -5.208778
weight of 2 is -2.155556
weight of 3 is -3.000000
not used!
deny
deny
deny
deny
deny
deny
weight of 0 is 5.862277
weight of 1 is -5.208742
weight of 2 is -2.155556
weight of 3 is -2.000000
used!
weight of 0 is 5.911648
weight of 1 is -5.208707
weight of 2 is -2.155556
weight of 3 is -1.000000
used!
deny
deny
deny
deny
deny
deny
weight of 0 is 6.519712
weight of 1 is -5.151164
weight of 2 is -0.911111
weight of 3 is 0.000000
used!
weight of 0 is 7.127776
weight of 1 is -5.093621
weight of 2 is 0.333333
weight of 3 is 1.000000
used!
weight of 0 is 7.112650
weight of 1 is -10.057697
weight of 2 is 0.333333
weight of 3 is 0.000000
not used!
accept
accept
weight of 0 is 7.720714
weight of 1 is -10.057653
weight of 2 is 0.866667
weight of 3 is 1.000000
used!
weight of 0 is 8.328778
weight of 1 is -10.057608
weight of 2 is 1.400000
weight of 3 is 2.000000
used!
deny
deny
weight of 0 is 8.273353
weight of 1 is -10.057697
weight of 2 is 0.155556
weight of 3 is 1.000000
not used!
deny
deny
accept
accept
accept
accept
deny
deny
accept
accept
accept
accept
weight of 0 is 7.665287
weight of 1 is -10.057744
weight of 2 is -0.022222
weight of 3 is 0.000000
not used!
deny
deny
deny
deny
weight of 0 is 8.273349
weight of 1 is -10.057707
weight of 2 is 0.511111
weight of 3 is 1.000000
used!
weight of 0 is 8.881410
weight of 1 is -10.057669
weight of 2 is 1.044444
weight of 3 is 2.000000
used!
accept
accept
weight of 0 is 8.866284
weight of 1 is -10.057725
weight of 2 is 1.044444
weight of 3 is 1.000000
not used!
deny
deny
weight of 0 is 8.258216
weight of 1 is -10.057747
weight of 2 is 0.333333
weight of 3 is 0.000000
not used!
deny
deny
accept
accept
accept
accept
accept
accept
accept
accept
accept
accept
weight of 0 is 8.203096
weight of 1 is -10.057756
weight of 2 is -0.377778
weight of 3 is -1.000000
not used!
weight of 0 is 8.147716
weight of 1 is -10.057796
weight of 2 is -0.911111
weight of 3 is -2.000000
not used!
deny
deny
deny
deny
deny
deny
deny
deny
deny
deny
weight of 0 is 8.201420
weight of 1 is -10.057596
weight of 2 is -0.022222
weight of 3 is -1.000000
used!
weight of 0 is 8.255125
weight of 1 is -10.057397
weight of 2 is 0.866667
weight of 3 is 0.000000
used!
accept
accept
accept
accept
accept
accept
accept
accept
accept
accept
accept
accept
weight of 0 is 8.199692
weight of 1 is -10.057509
weight of 2 is 0.333333
weight of 3 is -1.000000
not used!
weight of 0 is 8.146478
weight of 1 is -10.057559
weight of 2 is 0.333333
weight of 3 is -2.000000
not used!
deny
deny
deny
deny
deny
deny
deny
deny
deny
deny
deny
deny
deny
deny
accept
accept
deny
deny
weight of 0 is 8.195686
weight of 1 is -4.711732
weight of 2 is 0.333333
weight of 3 is -1.000000
used!
weight of 0 is 8.244894
weight of 1 is 0.634095
weight of 2 is 0.333333
weight of 3 is 0.000000
used!
accept
accept
accept
accept
weight of 0 is 8.294103
weight of 1 is 0.634125
weight of 2 is 1.222222
weight of 3 is 1.000000
used!
weight of 0 is 8.343311
weight of 1 is 0.634156
weight of 2 is 2.111111
weight of 3 is 2.000000
used!
accept
accept
accept
accept
accept
accept
accept
accept
accept
accept
accept
accept
accept
accept
accept
accept
accept
accept
accept
accept
weight of 0 is 8.328185
weight of 1 is -5.203860
weight of 2 is 2.111111
weight of 3 is 1.000000
not used!
weight of 0 is 8.271588
weight of 1 is -11.041895
weight of 2 is 2.111111
weight of 3 is 0.000000
not used!
deny
deny
accept
accept
accept
accept
weight of 0 is 7.663517
weight of 1 is -11.041977
weight of 2 is 1.577778
weight of 3 is -1.000000
not used!
deny
deny
accept
accept
accept
accept
weight of 0 is 7.718949
weight of 1 is -11.041916
weight of 2 is 1.933333
weight of 3 is 0.000000
used!
weight of 0 is 7.774382
weight of 1 is -11.041855
weight of 2 is 2.288889
weight of 3 is 1.000000
used!
weight of 0 is 7.759256
weight of 1 is -11.041930
weight of 2 is 2.288889
weight of 3 is 0.000000
not used!
accept
accept
accept
accept
accept
accept
deny
deny
weight of 0 is 7.151184
weight of 1 is -16.266332
weight of 2 is 1.044444
weight of 3 is -1.000000
not used!
weight of 0 is 7.148955
weight of 1 is -20.359028
weight of 2 is 0.111111
weight of 3 is -2.000000
not used!
weight of 0 is 7.093777
weight of 1 is -20.359044
weight of 2 is -1.133333
weight of 3 is -3.000000
not used!
weight of 0 is 7.038347
weight of 1 is -20.359070
weight of 2 is -2.022222
weight of 3 is -4.000000
not used!
weight of 0 is 6.987290
weight of 1 is -20.477644
weight of 2 is -2.911111
weight of 3 is -5.000000
not used!
weight of 0 is 6.931924
weight of 1 is -20.596274
weight of 2 is -2.955556
weight of 3 is -6.000000
not used!
deny
deny
deny
deny
deny
deny
Exiting @ tick 18600721000 because a thread reached the max instruction count
