Running SPEC test: x264

/home/victorfu/cpu2017/benchspec/CPU/525.x264_r
/home/victorfu/finalproject/gem5/build/X86/gem6.opt --outdir="/home/victorfu/output/bench_spec/fastforward-p3/x264" /home/victorfu/finalproject/gem5/configs/example/se.py --cmd=x264_r_base.victor_jun10-m64 --standard-switch=0 --warmup-insts=22000000 --caches  --l2cache --l1i_size=16kB  --l1d_size=64kB --l2_size=256kB --cpu-type=DerivO3CPU  --mem-type=DDR3_1600_8x8  --cpu-clock=1GHz --maxinsts=100000000 --options="--pass 2 --stats x264_stats.log --bitrate 1000 --dumpyuv 200 --frames 1000 -o BuckBunny_New.264 BuckBunny.yuv 1280x720" --l2-hwp-type=TaggedPrefetcher --mlu_pf_type=perceptron

gem5 Simulator System.  http://gem5.org
gem5 is copyrighted software; use the --copyright option for details.

gem5 compiled Jun 14 2019 14:23:51
gem5 started Jun 14 2019 15:51:57
gem5 executing on tetracosa.cs.ucla.edu, pid 347083
command line: /home/victorfu/finalproject/gem5/build/X86/gem6.opt --outdir=/home/victorfu/output/bench_spec/fastforward-p3/x264 /home/victorfu/finalproject/gem5/configs/example/se.py --cmd=x264_r_base.victor_jun10-m64 --standard-switch=0 --warmup-insts=22000000 --caches --l2cache --l1i_size=16kB --l1d_size=64kB --l2_size=256kB --cpu-type=DerivO3CPU --mem-type=DDR3_1600_8x8 --cpu-clock=1GHz --maxinsts=100000000 '--options=--pass 2 --stats x264_stats.log --bitrate 1000 --dumpyuv 200 --frames 1000 -o BuckBunny_New.264 BuckBunny.yuv 1280x720' --l2-hwp-type=TaggedPrefetcher --mlu_pf_type=perceptron

info: Standard input is not a terminal, disabling listeners.
Warning: l2-hwp-type is set ( TaggedPrefetcher ), but the current l2 has a default Hardware Prefetcher of type <class 'm5.params.NullSimObject'> , using the specified by the flag option.
MLU-Prefetch Perceptron Enabled.
Global frequency set at 1000000000000 ticks per second
warn: DRAM device capacity (8192 Mbytes) does not match the address range assigned (512 Mbytes)
warn: Sockets disabled, not accepting gdb connections
**** REAL SIMULATION ****
info: Entering event queue @ 0.  Starting simulation...
accept
accept
accept
accept
accept
accept
accept
accept
accept
accept
accept
accept
accept
accept
accept
accept
accept
accept
accept
accept
accept
accept
accept
accept
accept
accept
accept
accept
accept
accept
accept
accept
accept
accept
accept
accept
accept
accept
accept
accept
accept
accept
accept
accept
accept
accept
accept
accept
accept
accept
accept
accept
accept
accept
accept
accept
accept
accept
accept
accept
accept
accept
accept
accept
accept
accept
accept
accept
accept
accept
accept
accept
accept
accept
accept
accept
accept
accept
accept
accept
accept
accept
accept
accept
accept
accept
accept
accept
accept
accept
accept
accept
accept
accept
accept
accept
accept
accept
accept
accept
accept
accept
accept
accept
accept
accept
accept
accept
accept
accept
accept
accept
accept
accept
accept
accept
accept
accept
accept
accept
info: Increasing stack size by one page.
accept
accept
accept
accept
accept
accept
accept
accept
accept
accept
accept
accept
accept
accept
accept
accept
accept
accept
accept
accept
accept
accept
accept
accept
accept
accept
accept
accept
accept
accept
accept
accept
accept
accept
accept
accept
accept
accept
accept
accept
accept
accept
accept
accept
accept
accept
accept
accept
accept
accept
accept
accept
accept
accept
accept
accept
accept
accept
accept
accept
accept
accept
accept
accept
accept
accept
accept
accept
accept
accept
accept
accept
accept
accept
accept
accept
accept
accept
accept
accept
accept
accept
accept
accept
accept
accept
accept
accept
accept
accept
accept
accept
accept
accept
accept
accept
accept
accept
accept
accept
accept
accept
accept
accept
accept
accept
accept
accept
accept
accept
accept
accept
accept
accept
accept
accept
accept
accept
accept
accept
accept
accept
accept
accept
accept
accept
accept
accept
accept
accept
accept
accept
accept
accept
accept
accept
accept
accept
accept
accept
accept
accept
weight of 0 is -0.495252
weight of 1 is -0.043687
weight of 2 is -0.533333
weight of 3 is -1.000000
not used!
weight of 0 is -0.990498
weight of 1 is -0.043697
weight of 2 is -1.777778
weight of 3 is -2.000000
not used!
deny
deny
deny
deny
deny
deny
deny
deny
weight of 0 is -0.495789
weight of 1 is -0.042908
weight of 2 is -1.777778
weight of 3 is -1.000000
used!
weight of 0 is -0.001080
weight of 1 is -0.042119
weight of 2 is -1.777778
weight of 3 is 0.000000
used!
weight of 0 is -0.496283
weight of 1 is -0.082309
weight of 2 is -2.133333
weight of 3 is -1.000000
not used!
deny
deny
deny
deny
weight of 0 is -0.001574
weight of 1 is -0.081896
weight of 2 is -2.133333
weight of 3 is 0.000000
used!
weight of 0 is 0.493136
weight of 1 is -0.081483
weight of 2 is -2.133333
weight of 3 is 1.000000
used!
accept
accept
weight of 0 is 0.987845
weight of 1 is -0.080675
weight of 2 is -2.133333
weight of 3 is 2.000000
used!
weight of 0 is 1.482554
weight of 1 is -0.079867
weight of 2 is -2.133333
weight of 3 is 3.000000
used!
accept
accept
weight of 0 is 0.987342
weight of 1 is -0.120666
weight of 2 is -3.022222
weight of 3 is 2.000000
not used!
accept
accept
deny
deny
accept
accept
accept
accept
weight of 0 is 0.492130
weight of 1 is -0.120828
weight of 2 is -3.377778
weight of 3 is 1.000000
not used!
weight of 0 is -0.003083
weight of 1 is -0.120856
weight of 2 is -4.444444
weight of 3 is 0.000000
not used!
accept
accept
deny
deny
accept
accept
weight of 0 is -0.498285
weight of 1 is -0.121725
weight of 2 is -4.444444
weight of 3 is -1.000000
not used!
weight of 0 is -0.993498
weight of 1 is -0.122655
weight of 2 is -5.155556
weight of 3 is -2.000000
not used!
deny
deny
deny
deny
deny
deny
weight of 0 is -1.488208
weight of 1 is -0.163621
weight of 2 is -5.155556
weight of 3 is -3.000000
not used!
deny
deny
deny
deny
deny
deny
weight of 0 is -0.993499
weight of 1 is -0.163546
weight of 2 is -5.155556
weight of 3 is -2.000000
used!
weight of 0 is -0.498789
weight of 1 is -0.163470
weight of 2 is -5.155556
weight of 3 is -1.000000
used!
deny
deny
weight of 0 is -0.993482
weight of 1 is -0.163473
weight of 2 is -6.400000
weight of 3 is -2.000000
not used!
deny
deny
weight of 0 is -0.498773
weight of 1 is -0.144956
weight of 2 is -6.400000
weight of 3 is -1.000000
used!
weight of 0 is -0.004064
weight of 1 is -0.126438
weight of 2 is -6.400000
weight of 3 is 0.000000
used!
accept
accept
accept
accept
weight of 0 is 0.490646
weight of 1 is -0.126420
weight of 2 is -6.400000
weight of 3 is 1.000000
used!
weight of 0 is 0.985355
weight of 1 is -0.126401
weight of 2 is -6.400000
weight of 3 is 2.000000
used!
weight of 0 is 0.490156
weight of 1 is -0.167543
weight of 2 is -7.111111
weight of 3 is 1.000000
not used!
accept
accept
weight of 0 is -0.004942
weight of 1 is -0.175781
weight of 2 is -7.111111
weight of 3 is 0.000000
not used!
weight of 0 is -0.499632
weight of 1 is -0.208958
weight of 2 is -7.200000
weight of 3 is -1.000000
not used!
deny
deny
deny
deny
deny
deny
weight of 0 is -0.004695
weight of 1 is -0.190396
weight of 2 is -7.200000
weight of 3 is 0.000000
used!
weight of 0 is 0.490243
weight of 1 is -0.171834
weight of 2 is -7.200000
weight of 3 is 1.000000
used!
weight of 0 is -0.004970
weight of 1 is -0.212873
weight of 2 is -7.733333
weight of 3 is 0.000000
not used!
accept
accept
weight of 0 is 0.489739
weight of 1 is -0.205208
weight of 2 is -7.733333
weight of 3 is 1.000000
used!
weight of 0 is 0.984448
weight of 1 is -0.197542
weight of 2 is -7.733333
weight of 3 is 2.000000
used!
deny
deny
weight of 0 is 1.479386
weight of 1 is -0.180522
weight of 2 is -6.400000
weight of 3 is 3.000000
used!
weight of 0 is 1.974324
weight of 1 is -0.163502
weight of 2 is -5.066667
weight of 3 is 4.000000
used!
weight of 0 is 1.479634
weight of 1 is -0.206287
weight of 2 is -5.155556
weight of 3 is 3.000000
not used!
weight of 0 is 0.984946
weight of 1 is -0.206315
weight of 2 is -5.955556
weight of 3 is 2.000000
not used!
weight of 0 is 0.490256
weight of 1 is -0.206435
weight of 2 is -7.288889
weight of 3 is 1.000000
not used!
accept
accept
weight of 0 is -0.004434
weight of 1 is -0.206436
weight of 2 is -7.288889
weight of 3 is 0.000000
not used!
weight of 0 is -0.499144
weight of 1 is -0.208070
weight of 2 is -7.288889
weight of 3 is -1.000000
not used!
deny
deny
deny
deny
deny
deny
weight of 0 is -0.004434
weight of 1 is -0.208014
weight of 2 is -7.288889
weight of 3 is 0.000000
used!
weight of 0 is 0.490275
weight of 1 is -0.207958
weight of 2 is -7.288889
weight of 3 is 1.000000
used!
weight of 0 is -0.004434
weight of 1 is -0.220376
weight of 2 is -7.288889
weight of 3 is 0.000000
not used!
accept
accept
weight of 0 is -0.499677
weight of 1 is -0.252645
weight of 2 is -8.177778
weight of 3 is -1.000000
not used!
weight of 0 is -0.994226
weight of 1 is -0.297902
weight of 2 is -9.244444
weight of 3 is -2.000000
not used!
weight of 0 is -1.489439
weight of 1 is -0.340748
weight of 2 is -9.777778
weight of 3 is -3.000000
not used!
weight of 0 is -1.984649
weight of 1 is -0.354888
weight of 2 is -10.666667
weight of 3 is -4.000000
not used!
deny
deny
weight of 0 is -2.479564
weight of 1 is -0.357542
weight of 2 is -11.911111
weight of 3 is -5.000000
not used!
deny
deny
deny
deny
deny
deny
weight of 0 is -1.984855
weight of 1 is -0.343170
weight of 2 is -11.911111
weight of 3 is -4.000000
used!
weight of 0 is -1.490145
weight of 1 is -0.328797
weight of 2 is -11.911111
weight of 3 is -3.000000
used!
deny
deny
weight of 0 is -1.985035
weight of 1 is -0.343444
weight of 2 is -12.800000
weight of 3 is -4.000000
not used!
deny
deny
deny
deny
weight of 0 is -2.479813
weight of 1 is -0.352453
weight of 2 is -12.977778
weight of 3 is -5.000000
not used!
deny
deny
weight of 0 is -2.974591
weight of 1 is -0.357188
weight of 2 is -13.066667
weight of 3 is -6.000000
not used!
deny
deny
weight of 0 is -3.469369
weight of 1 is -0.357200
weight of 2 is -13.688889
weight of 3 is -7.000000
not used!
weight of 0 is -3.964078
weight of 1 is -0.362694
weight of 2 is -13.688889
weight of 3 is -8.000000
not used!
weight of 0 is -4.458788
weight of 1 is -0.362732
weight of 2 is -13.688889
weight of 3 is -9.000000
not used!
info: Increasing stack size by one page.
deny
deny
deny
deny
weight of 0 is -4.953704
weight of 1 is -0.379471
weight of 2 is -13.688889
weight of 3 is -10.000000
not used!
deny
deny
weight of 0 is -4.458995
weight of 1 is -0.371468
weight of 2 is -13.688889
weight of 3 is -9.000000
used!
weight of 0 is -3.964285
weight of 1 is -0.363465
weight of 2 is -13.688889
weight of 3 is -8.000000
used!
deny
deny
deny
deny
weight of 0 is -4.459163
weight of 1 is -0.365726
weight of 2 is -14.577778
weight of 3 is -9.000000
not used!
deny
deny
deny
deny
weight of 0 is -3.964454
weight of 1 is -0.365707
weight of 2 is -14.577778
weight of 3 is -8.000000
used!
weight of 0 is -3.469745
weight of 1 is -0.365689
weight of 2 is -14.577778
weight of 3 is -7.000000
used!
weight of 0 is -3.964664
weight of 1 is -0.382764
weight of 2 is -15.822222
weight of 3 is -8.000000
not used!
deny
deny
weight of 0 is -4.459373
weight of 1 is -0.399783
weight of 2 is -15.822222
weight of 3 is -9.000000
not used!
deny
deny
weight of 0 is -3.964664
weight of 1 is -0.361039
weight of 2 is -15.822222
weight of 3 is -8.000000
used!
weight of 0 is -3.469954
weight of 1 is -0.322295
weight of 2 is -15.822222
weight of 3 is -7.000000
used!
weight of 0 is -3.964829
weight of 1 is -0.335709
weight of 2 is -15.822222
weight of 3 is -8.000000
not used!
deny
deny
weight of 0 is -4.459538
weight of 1 is -0.349066
weight of 2 is -15.822222
weight of 3 is -9.000000
not used!
deny
deny
weight of 0 is -3.964829
weight of 1 is -0.348935
weight of 2 is -15.822222
weight of 3 is -8.000000
used!
weight of 0 is -3.470119
weight of 1 is -0.348803
weight of 2 is -15.822222
weight of 3 is -7.000000
used!
deny
deny
deny
deny
deny
deny
weight of 0 is -2.975410
weight of 1 is -0.348728
weight of 2 is -15.822222
weight of 3 is -6.000000
used!
weight of 0 is -2.480701
weight of 1 is -0.348653
weight of 2 is -15.822222
weight of 3 is -5.000000
used!
deny
deny
weight of 0 is -1.985991
weight of 1 is -0.310189
weight of 2 is -15.822222
weight of 3 is -4.000000
used!
weight of 0 is -1.491282
weight of 1 is -0.271724
weight of 2 is -15.822222
weight of 3 is -3.000000
used!
deny
deny
weight of 0 is -1.986550
weight of 1 is -0.317234
weight of 2 is -16.355556
weight of 3 is -4.000000
not used!
deny
deny
weight of 0 is -1.491841
weight of 1 is -0.278865
weight of 2 is -16.355556
weight of 3 is -3.000000
used!
weight of 0 is -0.997132
weight of 1 is -0.240497
weight of 2 is -16.355556
weight of 3 is -2.000000
used!
deny
deny
weight of 0 is -1.491841
weight of 1 is -0.285951
weight of 2 is -16.355556
weight of 3 is -3.000000
not used!
weight of 0 is -1.987109
weight of 1 is -0.331364
weight of 2 is -16.711111
weight of 3 is -4.000000
not used!
deny
deny
deny
deny
weight of 0 is -2.481818
weight of 1 is -0.351415
weight of 2 is -16.711111
weight of 3 is -5.000000
not used!
deny
deny
weight of 0 is -1.987109
weight of 1 is -0.341909
weight of 2 is -16.711111
weight of 3 is -4.000000
used!
weight of 0 is -1.492400
weight of 1 is -0.332402
weight of 2 is -16.711111
weight of 3 is -3.000000
used!
weight of 0 is -1.987109
weight of 1 is -0.373236
weight of 2 is -16.711111
weight of 3 is -4.000000
not used!
weight of 0 is -2.481818
weight of 1 is -0.399971
weight of 2 is -16.711111
weight of 3 is -5.000000
not used!
weight of 0 is -2.977030
weight of 1 is -0.414042
weight of 2 is -16.711111
weight of 3 is -6.000000
not used!
deny
deny
deny
deny
deny
deny
deny
deny
weight of 0 is -3.472297
weight of 1 is -0.459317
weight of 2 is -17.955556
weight of 3 is -7.000000
not used!
deny
deny
deny
deny
weight of 0 is -2.977588
weight of 1 is -0.441657
weight of 2 is -17.955556
weight of 3 is -6.000000
used!
weight of 0 is -2.482878
weight of 1 is -0.423997
weight of 2 is -17.955556
weight of 3 is -5.000000
used!
deny
deny
deny
deny
weight of 0 is -1.988169
weight of 1 is -0.406318
weight of 2 is -17.955556
weight of 3 is -4.000000
used!
weight of 0 is -1.493460
weight of 1 is -0.388640
weight of 2 is -17.955556
weight of 3 is -3.000000
used!
deny
deny
weight of 0 is -0.998751
weight of 1 is -0.384636
weight of 2 is -17.955556
weight of 3 is -2.000000
used!
weight of 0 is -0.504041
weight of 1 is -0.380631
weight of 2 is -17.955556
weight of 3 is -1.000000
used!
weight of 0 is -0.999174
weight of 1 is -0.415097
weight of 2 is -18.666667
weight of 3 is -2.000000
not used!
deny
deny
deny
deny
weight of 0 is -1.493928
weight of 1 is -0.428071
weight of 2 is -19.955556
weight of 3 is -3.000000
not used!
deny
deny
weight of 0 is -0.999219
weight of 1 is -0.427113
weight of 2 is -19.955556
weight of 3 is -2.000000
used!
weight of 0 is -0.504510
weight of 1 is -0.426155
weight of 2 is -19.955556
weight of 3 is -1.000000
used!
deny
deny
weight of 0 is -0.009801
weight of 1 is -0.422233
weight of 2 is -19.955556
weight of 3 is 0.000000
used!
weight of 0 is 0.484909
weight of 1 is -0.418311
weight of 2 is -19.955556
weight of 3 is 1.000000
used!
weight of 0 is -0.009801
weight of 1 is -0.421954
weight of 2 is -19.955556
weight of 3 is 0.000000
not used!
accept
accept
weight of 0 is -0.504510
weight of 1 is -0.421973
weight of 2 is -19.955556
weight of 3 is -1.000000
not used!
warn: ignoring syscall access(...)
deny
deny
weight of 0 is -0.009801
weight of 1 is -0.404275
weight of 2 is -19.955556
weight of 3 is 0.000000
used!
weight of 0 is 0.484909
weight of 1 is -0.386578
weight of 2 is -19.955556
weight of 3 is 1.000000
used!
accept
accept
weight of 0 is -0.009800
weight of 1 is -0.402528
weight of 2 is -19.955556
weight of 3 is 0.000000
not used!
accept
accept
weight of 0 is -0.504510
weight of 1 is -0.430972
weight of 2 is -19.955556
weight of 3 is -1.000000
not used!
deny
deny
deny
deny
weight of 0 is -0.999219
weight of 1 is -0.431028
weight of 2 is -19.955556
weight of 3 is -2.000000
not used!
deny
deny
weight of 0 is -0.504509
weight of 1 is -0.430051
weight of 2 is -19.955556
weight of 3 is -1.000000
used!
weight of 0 is -0.009800
weight of 1 is -0.429074
weight of 2 is -19.955556
weight of 3 is 0.000000
used!
accept
accept
accept
accept
accept
accept
accept
accept
accept
accept
weight of 0 is -0.504862
weight of 1 is -0.430661
weight of 2 is -19.955556
weight of 3 is -1.000000
not used!
weight of 0 is -0.999571
weight of 1 is -0.459311
weight of 2 is -19.955556
weight of 3 is -2.000000
not used!
weight of 0 is -1.494280
weight of 1 is -0.459330
weight of 2 is -19.955556
weight of 3 is -3.000000
not used!
deny
deny
deny
deny
deny
deny
weight of 0 is -1.988990
weight of 1 is -0.489824
weight of 2 is -19.955556
weight of 3 is -4.000000
not used!
deny
deny
weight of 0 is -2.484073
weight of 1 is -0.520375
weight of 2 is -20.133333
weight of 3 is -5.000000
not used!
deny
deny
weight of 0 is -2.979291
weight of 1 is -0.521376
weight of 2 is -21.288889
weight of 3 is -6.000000
not used!
deny
deny
weight of 0 is -3.474372
weight of 1 is -0.522246
weight of 2 is -21.466667
weight of 3 is -7.000000
not used!
deny
deny
deny
deny
weight of 0 is -2.979663
weight of 1 is -0.499852
weight of 2 is -21.466667
weight of 3 is -6.000000
used!
weight of 0 is -2.484954
weight of 1 is -0.477458
weight of 2 is -21.466667
weight of 3 is -5.000000
used!
weight of 0 is -2.980166
weight of 1 is -0.518315
weight of 2 is -22.533333
weight of 3 is -6.000000
not used!
deny
deny
deny
deny
weight of 0 is -2.485456
weight of 1 is -0.501578
weight of 2 is -22.533333
weight of 3 is -5.000000
used!
weight of 0 is -1.990747
weight of 1 is -0.484841
weight of 2 is -22.533333
weight of 3 is -4.000000
used!
deny
deny
weight of 0 is -1.496038
weight of 1 is -0.484822
weight of 2 is -22.533333
weight of 3 is -3.000000
used!
weight of 0 is -1.001328
weight of 1 is -0.484803
weight of 2 is -22.533333
weight of 3 is -2.000000
used!
deny
deny
deny
deny
weight of 0 is -0.506619
weight of 1 is -0.246520
weight of 2 is -22.533333
weight of 3 is -1.000000
used!
weight of 0 is -0.011910
weight of 1 is -0.008236
weight of 2 is -22.533333
weight of 3 is 0.000000
used!
accept
accept
weight of 0 is 0.482800
weight of 1 is -0.007710
weight of 2 is -22.533333
weight of 3 is 1.000000
used!
weight of 0 is 0.977509
weight of 1 is -0.007184
weight of 2 is -22.533333
weight of 3 is 2.000000
used!
accept
accept
weight of 0 is 1.472218
weight of 1 is -0.007166
weight of 2 is -22.533333
weight of 3 is 3.000000
used!
weight of 0 is 1.966928
weight of 1 is -0.007147
weight of 2 is -22.533333
weight of 3 is 4.000000
used!
weight of 0 is 1.474814
weight of 1 is -0.218412
weight of 2 is -23.777778
weight of 3 is 3.000000
not used!
accept
accept
weight of 0 is 0.980105
weight of 1 is -0.429659
weight of 2 is -23.777778
weight of 3 is 2.000000
not used!
deny
deny
weight of 0 is 0.487984
weight of 1 is -0.640987
weight of 2 is -24.488889
weight of 3 is 1.000000
not used!
weight of 0 is -0.004129
weight of 1 is -0.640999
weight of 2 is -24.666667
weight of 3 is 0.000000
not used!
weight of 0 is -0.496242
weight of 1 is -0.641016
weight of 2 is -24.666667
weight of 3 is -1.000000
not used!
deny
deny
deny
deny
deny
deny
deny
deny
weight of 0 is -0.001176
weight of 1 is -0.611968
weight of 2 is -24.488889
weight of 3 is 0.000000
used!
weight of 0 is 0.493890
weight of 1 is -0.582921
weight of 2 is -24.311111
weight of 3 is 1.000000
used!
accept
accept
weight of 0 is -0.000819
weight of 1 is -0.611102
weight of 2 is -24.311111
weight of 3 is 0.000000
not used!
weight of 0 is -0.495154
weight of 1 is -0.641552
weight of 2 is -24.577778
weight of 3 is -1.000000
not used!
deny
deny
deny
deny
deny
deny
weight of 0 is -0.000445
weight of 1 is -0.636179
weight of 2 is -24.577778
weight of 3 is 0.000000
used!
weight of 0 is 0.494264
weight of 1 is -0.630806
weight of 2 is -24.577778
weight of 3 is 1.000000
used!
accept
accept
weight of 0 is 0.988973
weight of 1 is -0.630787
weight of 2 is -24.577778
weight of 3 is 2.000000
used!
weight of 0 is 1.483683
weight of 1 is -0.630768
weight of 2 is -24.577778
weight of 3 is 3.000000
used!
deny
deny
accept
accept
accept
accept
weight of 0 is 0.989143
weight of 1 is -0.644575
weight of 2 is -24.755556
weight of 3 is 2.000000
not used!
deny
deny
deny
deny
accept
accept
weight of 0 is 0.494433
weight of 1 is -0.659283
weight of 2 is -24.755556
weight of 3 is 1.000000
not used!
weight of 0 is -0.000107
weight of 1 is -0.673934
weight of 2 is -24.933333
weight of 3 is 0.000000
not used!
accept
accept
accept
accept
weight of 0 is -0.495316
weight of 1 is -0.728291
weight of 2 is -25.466667
weight of 3 is -1.000000
not used!
deny
deny
deny
deny
weight of 0 is -0.990402
weight of 1 is -0.741735
weight of 2 is -26.355556
weight of 3 is -2.000000
not used!
deny
deny
weight of 0 is -1.485489
weight of 1 is -0.741758
weight of 2 is -27.511111
weight of 3 is -3.000000
not used!
weight of 0 is -1.980345
weight of 1 is -0.741847
weight of 2 is -28.400000
weight of 3 is -4.000000
not used!
deny
deny
weight of 0 is -1.485636
weight of 1 is -0.738766
weight of 2 is -28.400000
weight of 3 is -3.000000
used!
weight of 0 is -0.990927
weight of 1 is -0.735685
weight of 2 is -28.400000
weight of 3 is -2.000000
used!
weight of 0 is -1.485636
weight of 1 is -0.766301
weight of 2 is -28.400000
weight of 3 is -3.000000
not used!
deny
deny
weight of 0 is -1.980726
weight of 1 is -0.797237
weight of 2 is -29.311111
weight of 3 is -4.000000
not used!
deny
deny
weight of 0 is -2.475960
weight of 1 is -0.839938
weight of 2 is -30.555556
weight of 3 is -5.000000
not used!
deny
deny
weight of 0 is -1.981250
weight of 1 is -0.839712
weight of 2 is -30.555556
weight of 3 is -4.000000
used!
weight of 0 is -1.486541
weight of 1 is -0.839487
weight of 2 is -30.555556
weight of 3 is -3.000000
used!
deny
deny
deny
deny
deny
deny
weight of 0 is -1.981250
weight of 1 is -0.839957
weight of 2 is -30.555556
weight of 3 is -4.000000
not used!
deny
deny
deny
deny
weight of 0 is -1.486541
weight of 1 is -0.839900
weight of 2 is -30.555556
weight of 3 is -3.000000
used!
weight of 0 is -0.991832
weight of 1 is -0.839844
weight of 2 is -30.555556
weight of 3 is -2.000000
used!
deny
deny
weight of 0 is -0.497123
weight of 1 is -0.839825
weight of 2 is -30.555556
weight of 3 is -1.000000
used!
weight of 0 is -0.002413
weight of 1 is -0.839806
weight of 2 is -30.555556
weight of 3 is 0.000000
used!
accept
accept
weight of 0 is 0.492296
weight of 1 is -0.839637
weight of 2 is -30.555556
weight of 3 is 1.000000
used!
weight of 0 is 0.987005
weight of 1 is -0.839468
weight of 2 is -30.555556
weight of 3 is 2.000000
used!
accept
accept
weight of 0 is 1.481715
weight of 1 is -0.839449
weight of 2 is -30.555556
weight of 3 is 3.000000
used!
weight of 0 is 1.976424
weight of 1 is -0.839431
weight of 2 is -30.555556
weight of 3 is 4.000000
used!
accept
accept
weight of 0 is 1.481215
weight of 1 is -0.880131
weight of 2 is -31.088889
weight of 3 is 3.000000
not used!
weight of 0 is 0.986005
weight of 1 is -0.880192
weight of 2 is -31.977778
weight of 3 is 2.000000
not used!
deny
deny
weight of 0 is 0.490796
weight of 1 is -0.920852
weight of 2 is -32.333333
weight of 3 is 1.000000
not used!
accept
accept
deny
deny
deny
deny
deny
deny
accept
accept
accept
accept
accept
accept
deny
deny
accept
accept
accept
accept
weight of 0 is -0.003913
weight of 1 is -0.920928
weight of 2 is -32.333333
weight of 3 is 0.000000
not used!
deny
deny
accept
accept
deny
deny
weight of 0 is 0.491132
weight of 1 is -0.920871
weight of 2 is -31.444444
weight of 3 is 1.000000
used!
weight of 0 is 0.986178
weight of 1 is -0.920815
weight of 2 is -30.555556
weight of 3 is 2.000000
used!
accept
accept
deny
deny
accept
accept
deny
deny
accept
accept
accept
accept
accept
accept
accept
accept
accept
accept
accept
accept
deny
deny
accept
accept
deny
deny
accept
accept
deny
deny
deny
deny
accept
accept
deny
deny
deny
deny
deny
deny
accept
accept
deny
deny
deny
deny
deny
deny
deny
deny
deny
deny
weight of 0 is 1.481232
weight of 1 is -0.914286
weight of 2 is -30.111111
weight of 3 is 3.000000
used!
weight of 0 is 1.976286
weight of 1 is -0.907758
weight of 2 is -29.666667
weight of 3 is 4.000000
used!
accept
accept
accept
accept
accept
accept
accept
accept
accept
accept
accept
accept
deny
deny
accept
accept
accept
accept
weight of 0 is 1.481577
weight of 1 is -0.934173
weight of 2 is -29.666667
weight of 3 is 3.000000
not used!
accept
accept
deny
deny
accept
accept
accept
accept
accept
accept
accept
accept
weight of 0 is 0.986867
weight of 1 is -0.935074
weight of 2 is -29.666667
weight of 3 is 2.000000
not used!
deny
deny
deny
deny
weight of 0 is 1.482034
weight of 1 is -0.915350
weight of 2 is -28.422222
weight of 3 is 3.000000
used!
weight of 0 is 1.977202
weight of 1 is -0.895626
weight of 2 is -27.177778
weight of 3 is 4.000000
used!
deny
deny
weight of 0 is 2.472417
weight of 1 is -0.854498
weight of 2 is -27.000000
weight of 3 is 5.000000
used!
weight of 0 is 2.967632
weight of 1 is -0.813370
weight of 2 is -26.822222
weight of 3 is 6.000000
used!
accept
accept
weight of 0 is 3.462848
weight of 1 is -0.813347
weight of 2 is -26.288889
weight of 3 is 7.000000
used!
weight of 0 is 3.958064
weight of 1 is -0.813323
weight of 2 is -25.755556
weight of 3 is 8.000000
used!
accept
accept
accept
accept
deny
deny
deny
deny
accept
accept
weight of 0 is 3.463355
weight of 1 is -0.828447
weight of 2 is -25.755556
weight of 3 is 7.000000
not used!
accept
accept
accept
accept
weight of 0 is 2.968645
weight of 1 is -0.860780
weight of 2 is -25.755556
weight of 3 is 6.000000
not used!
accept
accept
weight of 0 is 2.473936
weight of 1 is -0.861362
weight of 2 is -25.755556
weight of 3 is 5.000000
not used!
deny
deny
weight of 0 is 1.979227
weight of 1 is -0.862001
weight of 2 is -25.755556
weight of 3 is 4.000000
not used!
deny
deny
deny
deny
deny
deny
deny
deny
deny
deny
weight of 0 is 2.474371
weight of 1 is -0.860314
weight of 2 is -24.777778
weight of 3 is 5.000000
used!
weight of 0 is 2.969517
weight of 1 is -0.858627
weight of 2 is -23.800000
weight of 3 is 6.000000
used!
weight of 0 is 2.474807
weight of 1 is -0.858739
weight of 2 is -23.800000
weight of 3 is 5.000000
not used!
deny
deny
weight of 0 is 2.969952
weight of 1 is -0.858717
weight of 2 is -23.088889
weight of 3 is 6.000000
used!
weight of 0 is 3.465097
weight of 1 is -0.858695
weight of 2 is -22.377778
weight of 3 is 7.000000
used!
accept
accept
accept
accept
accept
accept
accept
accept
accept
accept
weight of 0 is 2.970388
weight of 1 is -0.875441
weight of 2 is -22.377778
weight of 3 is 6.000000
not used!
weight of 0 is 2.475679
weight of 1 is -0.900804
weight of 2 is -22.377778
weight of 3 is 5.000000
not used!
weight of 0 is 1.980969
weight of 1 is -0.915590
weight of 2 is -22.377778
weight of 3 is 4.000000
not used!
accept
accept
accept
accept
deny
deny
weight of 0 is 1.486260
weight of 1 is -0.932195
weight of 2 is -22.377778
weight of 3 is 3.000000
not used!
accept
accept
deny
deny
weight of 0 is 1.981404
weight of 1 is -0.932140
weight of 2 is -21.577778
weight of 3 is 4.000000
used!
weight of 0 is 2.476548
weight of 1 is -0.932085
weight of 2 is -20.777778
weight of 3 is 5.000000
used!
accept
accept
deny
deny
accept
accept
weight of 0 is 1.981839
weight of 1 is -0.935797
weight of 2 is -20.777778
weight of 3 is 4.000000
not used!
weight of 0 is 1.487130
weight of 1 is -0.961581
weight of 2 is -20.777778
weight of 3 is 3.000000
not used!
weight of 0 is 0.992421
weight of 1 is -0.961599
weight of 2 is -20.777778
weight of 3 is 2.000000
not used!
accept
accept
warn: ignoring syscall mprotect(...)
accept
accept
deny
deny
weight of 0 is 0.497711
weight of 1 is -0.961712
weight of 2 is -20.777778
weight of 3 is 1.000000
not used!
accept
accept
weight of 0 is 0.002957
weight of 1 is -0.965169
weight of 2 is -20.777778
weight of 3 is 0.000000
not used!
accept
accept
accept
accept
deny
deny
accept
accept
deny
deny
accept
accept
weight of 0 is -0.491752
weight of 1 is -1.001100
weight of 2 is -20.777778
weight of 3 is -1.000000
not used!
deny
deny
deny
deny
deny
deny
weight of 0 is 0.015092
weight of 1 is -1.000842
weight of 2 is -20.422222
weight of 3 is 0.000000
used!
weight of 0 is 0.521937
weight of 1 is -1.000584
weight of 2 is -20.066667
weight of 3 is 1.000000
used!
accept
accept
weight of 0 is 1.028781
weight of 1 is -0.012861
weight of 2 is -20.066667
weight of 3 is 2.000000
used!
weight of 0 is 1.535626
weight of 1 is 0.974861
weight of 2 is -20.066667
weight of 3 is 3.000000
used!
weight of 0 is 1.040576
weight of 1 is 0.969406
weight of 2 is -20.155556
weight of 3 is 2.000000
not used!
deny
deny
accept
accept
accept
accept
weight of 0 is 1.535789
weight of 1 is 1.916200
weight of 2 is -19.444444
weight of 3 is 3.000000
used!
weight of 0 is 2.031002
weight of 1 is 2.862995
weight of 2 is -18.733333
weight of 3 is 4.000000
used!
deny
deny
accept
accept
weight of 0 is 2.526215
weight of 1 is 3.809777
weight of 2 is -18.555556
weight of 3 is 5.000000
used!
weight of 0 is 3.021427
weight of 1 is 4.756560
weight of 2 is -18.377778
weight of 3 is 6.000000
used!
accept
accept
weight of 0 is 2.526373
weight of 1 is 4.756539
weight of 2 is -18.466667
weight of 3 is 5.000000
not used!
weight of 0 is 2.031664
weight of 1 is 4.756351
weight of 2 is -18.466667
weight of 3 is 4.000000
not used!
accept
accept
deny
deny
accept
accept
weight of 0 is 1.536955
weight of 1 is 4.738747
weight of 2 is -18.466667
weight of 3 is 3.000000
not used!
deny
deny
accept
accept
accept
accept
accept
accept
accept
accept
accept
accept
weight of 0 is 1.042216
weight of 1 is 4.711130
weight of 2 is -18.466667
weight of 3 is 2.000000
not used!
weight of 0 is 0.547506
weight of 1 is 4.683344
weight of 2 is -18.466667
weight of 3 is 1.000000
not used!
deny
deny
weight of 0 is 0.052797
weight of 1 is 4.668060
weight of 2 is -18.466667
weight of 3 is 0.000000
not used!
deny
deny
accept
accept
accept
accept
deny
deny
deny
deny
deny
deny
deny
deny
deny
deny
deny
deny
deny
deny
deny
deny
deny
deny
deny
deny
deny
deny
weight of 0 is 0.547869
weight of 1 is 4.676167
weight of 2 is -18.022222
weight of 3 is 1.000000
used!
weight of 0 is 1.042941
weight of 1 is 4.684274
weight of 2 is -17.577778
weight of 3 is 2.000000
used!
deny
deny
deny
deny
deny
deny
weight of 0 is 1.538117
weight of 1 is 4.692642
weight of 2 is -16.555556
weight of 3 is 3.000000
used!
weight of 0 is 2.033294
weight of 1 is 4.701010
weight of 2 is -15.533333
weight of 3 is 4.000000
used!
deny
deny
deny
deny
deny
deny
weight of 0 is 1.538585
weight of 1 is 4.659382
weight of 2 is -15.533333
weight of 3 is 3.000000
not used!
weight of 0 is 1.043668
weight of 1 is 4.617674
weight of 2 is -15.533333
weight of 3 is 2.000000
not used!
weight of 0 is 0.548471
weight of 1 is 4.577955
weight of 2 is -15.711111
weight of 3 is 1.000000
not used!
accept
accept
weight of 0 is 0.053762
weight of 1 is 4.538293
weight of 2 is -15.711111
weight of 3 is 0.000000
not used!
deny
deny
weight of 0 is -0.440947
weight of 1 is 4.515542
weight of 2 is -15.711111
weight of 3 is -1.000000
not used!
weight of 0 is -0.935657
weight of 1 is 4.514414
weight of 2 is -15.711111
weight of 3 is -2.000000
not used!
deny
deny
deny
deny
weight of 0 is -1.442205
weight of 1 is 4.514401
weight of 2 is -15.711111
weight of 3 is -3.000000
not used!
deny
deny
deny
deny
deny
deny
weight of 0 is -0.947056
weight of 1 is 4.514424
weight of 2 is -14.555556
weight of 3 is -2.000000
used!
weight of 0 is -0.451906
weight of 1 is 4.514446
weight of 2 is -13.400000
weight of 3 is -1.000000
used!
deny
deny
weight of 0 is 0.043243
weight of 1 is 4.516116
weight of 2 is -12.511111
weight of 3 is 0.000000
used!
weight of 0 is 0.538393
weight of 1 is 4.517786
weight of 2 is -11.622222
weight of 3 is 1.000000
used!
accept
accept
weight of 0 is 0.043179
weight of 1 is 3.570963
weight of 2 is -11.622222
weight of 3 is 0.000000
not used!
deny
deny
deny
deny
weight of 0 is -0.452033
weight of 1 is 3.570918
weight of 2 is -11.800000
weight of 3 is -1.000000
not used!
deny
deny
weight of 0 is 0.043115
weight of 1 is 3.570974
weight of 2 is -10.822222
weight of 3 is 0.000000
used!
weight of 0 is 0.538264
weight of 1 is 3.571029
weight of 2 is -9.844444
weight of 3 is 1.000000
used!
deny
deny
weight of 0 is 1.033413
weight of 1 is 3.571053
weight of 2 is -9.311111
weight of 3 is 2.000000
used!
weight of 0 is 1.528563
weight of 1 is 3.571078
weight of 2 is -8.777778
weight of 3 is 3.000000
used!
deny
deny
warn: ignoring syscall mprotect(...)
weight of 0 is 1.033853
weight of 1 is 3.570815
weight of 2 is -8.777778
weight of 3 is 2.000000
not used!
accept
accept
accept
accept
accept
accept
accept
accept
accept
accept
weight of 0 is 0.539144
weight of 1 is 3.509977
weight of 2 is -8.777778
weight of 3 is 1.000000
not used!
weight of 0 is 0.044435
weight of 1 is 3.509413
weight of 2 is -8.777778
weight of 3 is 0.000000
not used!
accept
accept
accept
accept
accept
accept
weight of 0 is -0.450275
weight of 1 is 3.501899
weight of 2 is -8.777778
weight of 3 is -1.000000
not used!
deny
deny
deny
deny
deny
deny
weight of 0 is 0.070748
weight of 1 is 3.501955
weight of 2 is -8.777778
weight of 3 is 0.000000
used!
weight of 0 is 0.591770
weight of 1 is 3.502011
weight of 2 is -8.777778
weight of 3 is 1.000000
used!
accept
accept
weight of 0 is 1.112793
weight of 1 is 3.502030
weight of 2 is -8.777778
weight of 3 is 2.000000
used!
weight of 0 is 1.633816
weight of 1 is 3.502049
weight of 2 is -8.777778
weight of 3 is 3.000000
used!
weight of 0 is 1.139107
weight of 1 is 3.501993
weight of 2 is -8.777778
weight of 3 is 2.000000
not used!
accept
accept
accept
accept
deny
deny
deny
deny
deny
deny
accept
accept
accept
accept
accept
accept
accept
accept
deny
deny
accept
accept
weight of 0 is 0.644398
weight of 1 is 3.434894
weight of 2 is -8.777778
weight of 3 is 1.000000
not used!
weight of 0 is 0.152332
weight of 1 is 3.220606
weight of 2 is -8.777778
weight of 3 is 0.000000
not used!
accept
accept
accept
accept
accept
accept
accept
accept
deny
deny
deny
deny
accept
accept
accept
accept
deny
deny
accept
accept
accept
accept
accept
accept
deny
deny
accept
accept
accept
accept
accept
accept
accept
accept
accept
accept
accept
accept
accept
accept
deny
deny
accept
accept
accept
accept
accept
accept
accept
accept
accept
accept
accept
accept
accept
accept
weight of 0 is -0.342589
weight of 1 is 3.220510
weight of 2 is -8.777778
weight of 3 is -1.000000
not used!
deny
deny
deny
deny
deny
deny
weight of 0 is 0.152120
weight of 1 is 3.220848
weight of 2 is -8.777778
weight of 3 is 0.000000
used!
weight of 0 is 0.646829
weight of 1 is 3.221186
weight of 2 is -8.777778
weight of 3 is 1.000000
used!
accept
accept
weight of 0 is 1.141539
weight of 1 is 3.221205
weight of 2 is -8.777778
weight of 3 is 2.000000
used!
weight of 0 is 1.636248
weight of 1 is 3.221224
weight of 2 is -8.777778
weight of 3 is 3.000000
used!
accept
accept
accept
accept
accept
accept
deny
deny
accept
accept
accept
accept
deny
deny
accept
accept
accept
accept
accept
accept
deny
deny
deny
deny
accept
accept
deny
deny
accept
accept
accept
accept
accept
accept
accept
accept
deny
deny
weight of 0 is 2.143156
weight of 1 is 3.222607
weight of 2 is -8.222222
weight of 3 is 4.000000
used!
weight of 0 is 2.650064
weight of 1 is 3.223990
weight of 2 is -7.666667
weight of 3 is 5.000000
used!
accept
accept
accept
accept
accept
accept
accept
accept
weight of 0 is 2.128773
weight of 1 is 3.223933
weight of 2 is -7.666667
weight of 3 is 4.000000
not used!
weight of 0 is 1.607483
weight of 1 is 3.223915
weight of 2 is -7.666667
weight of 3 is 3.000000
not used!
accept
accept
weight of 0 is 1.112773
weight of 1 is 1.060597
weight of 2 is -7.666667
weight of 3 is 2.000000
not used!
weight of 0 is 0.605978
weight of 1 is 1.060595
weight of 2 is -7.666667
weight of 3 is 1.000000
not used!
accept
accept
accept
accept
deny
deny
accept
accept
deny
deny
accept
accept
accept
accept
deny
deny
deny
deny
accept
accept
accept
accept
deny
deny
weight of 0 is 1.127220
weight of 1 is 1.060605
weight of 2 is -6.422222
weight of 3 is 2.000000
used!
weight of 0 is 1.648463
weight of 1 is 1.060616
weight of 2 is -5.177778
weight of 3 is 3.000000
used!
accept
accept
accept
accept
weight of 0 is 2.169705
weight of 1 is 2.215309
weight of 2 is -4.555556
weight of 3 is 4.000000
used!
weight of 0 is 2.690948
weight of 1 is 3.370002
weight of 2 is -3.933333
weight of 3 is 5.000000
used!
accept
accept
accept
accept
weight of 0 is 2.196239
weight of 1 is 3.369589
weight of 2 is -3.933333
weight of 3 is 4.000000
not used!
accept
accept
accept
accept
accept
accept
accept
accept
accept
accept
accept
accept
accept
accept
accept
accept
accept
accept
weight of 0 is 1.701529
weight of 1 is 3.329206
weight of 2 is -3.933333
weight of 3 is 3.000000
not used!
accept
accept
accept
accept
accept
accept
accept
accept
accept
accept
accept
accept
accept
accept
accept
accept
accept
accept
accept
accept
accept
accept
accept
accept
accept
accept
weight of 0 is 1.206820
weight of 1 is 1.165684
weight of 2 is -3.933333
weight of 3 is 2.000000
not used!
accept
accept
accept
accept
accept
accept
weight of 0 is 0.712111
weight of 1 is 1.165102
weight of 2 is -3.933333
weight of 3 is 1.000000
not used!
weight of 0 is 0.217401
weight of 1 is 1.165064
weight of 2 is -3.933333
weight of 3 is 0.000000
not used!
accept
accept
weight of 0 is -0.277308
weight of 1 is 1.164783
weight of 2 is -3.933333
weight of 3 is -1.000000
not used!
weight of 0 is -0.772017
weight of 1 is 1.158620
weight of 2 is -3.933333
weight of 3 is -2.000000
not used!
deny
deny
deny
deny
deny
deny
deny
deny
weight of 0 is -0.277308
weight of 1 is 1.159879
weight of 2 is -3.933333
weight of 3 is -1.000000
used!
weight of 0 is 0.217402
weight of 1 is 1.161138
weight of 2 is -3.933333
weight of 3 is 0.000000
used!
accept
accept
weight of 0 is 0.712111
weight of 1 is 1.161157
weight of 2 is -3.933333
weight of 3 is 1.000000
used!
weight of 0 is 1.206821
weight of 1 is 1.161175
weight of 2 is -3.933333
weight of 3 is 2.000000
used!
accept
accept
weight of 0 is 0.712111
weight of 1 is 1.161138
weight of 2 is -3.933333
weight of 3 is 1.000000
not used!
accept
accept
accept
accept
weight of 0 is 0.217402
weight of 1 is 1.160368
weight of 2 is -3.933333
weight of 3 is 0.000000
not used!
weight of 0 is -0.277308
weight of 1 is 1.146953
weight of 2 is -3.933333
weight of 3 is -1.000000
not used!
deny
deny
weight of 0 is -0.772017
weight of 1 is 1.130101
weight of 2 is -3.933333
weight of 3 is -2.000000
not used!
deny
deny
deny
deny
deny
deny
weight of 0 is -0.264879
weight of 1 is 2.271717
weight of 2 is -3.755556
weight of 3 is -1.000000
used!
weight of 0 is 0.242259
weight of 1 is 3.413334
weight of 2 is -3.577778
weight of 3 is 0.000000
used!
accept
accept
weight of 0 is 0.749397
weight of 1 is 3.413355
weight of 2 is -3.222222
weight of 3 is 1.000000
used!
weight of 0 is 1.256535
weight of 1 is 3.413376
weight of 2 is -2.866667
weight of 3 is 2.000000
used!
accept
accept
weight of 0 is 1.763673
weight of 1 is 3.413390
weight of 2 is -2.866667
weight of 3 is 3.000000
used!
weight of 0 is 2.270812
weight of 1 is 3.413404
weight of 2 is -2.866667
weight of 3 is 4.000000
used!
accept
accept
accept
accept
accept
accept
accept
accept
accept
accept
accept
accept
accept
accept
accept
accept
accept
accept
accept
accept
accept
accept
accept
accept
accept
accept
weight of 0 is 1.776103
weight of 1 is 3.185838
weight of 2 is -2.866667
weight of 3 is 3.000000
not used!
accept
accept
accept
accept
accept
accept
weight of 0 is 1.284192
weight of 1 is 2.958043
weight of 2 is -2.888889
weight of 3 is 2.000000
not used!
accept
accept
accept
accept
accept
accept
accept
accept
accept
accept
accept
accept
accept
accept
accept
accept
accept
accept
accept
accept
weight of 0 is 0.789482
weight of 1 is 2.903784
weight of 2 is -2.888889
weight of 3 is 1.000000
not used!
accept
accept
accept
accept
accept
accept
accept
accept
accept
accept
accept
accept
weight of 0 is 0.297511
weight of 1 is 1.672935
weight of 2 is -3.377778
weight of 3 is 0.000000
not used!
accept
accept
accept
accept
accept
accept
accept
accept
deny
deny
weight of 0 is -0.209397
weight of 1 is 1.672913
weight of 2 is -4.200000
weight of 3 is -1.000000
not used!
deny
deny
weight of 0 is -0.701180
weight of 1 is 0.441753
weight of 2 is -4.200000
weight of 3 is -2.000000
not used!
deny
deny
weight of 0 is -1.195889
weight of 1 is 0.218034
weight of 2 is -4.200000
weight of 3 is -3.000000
not used!
deny
deny
weight of 0 is -0.688741
weight of 1 is 0.218055
weight of 2 is -3.844444
weight of 3 is -2.000000
used!
weight of 0 is -0.181592
weight of 1 is 0.218076
weight of 2 is -3.488889
weight of 3 is -1.000000
used!
deny
deny
weight of 0 is 0.325557
weight of 1 is 0.218090
weight of 2 is -3.488889
weight of 3 is 0.000000
used!
weight of 0 is 0.832705
weight of 1 is 0.218104
weight of 2 is -3.488889
weight of 3 is 1.000000
used!
accept
accept
weight of 0 is 1.339854
weight of 1 is 1.359110
weight of 2 is -3.311111
weight of 3 is 2.000000
used!
weight of 0 is 1.847003
weight of 1 is 2.500115
weight of 2 is -3.133333
weight of 3 is 3.000000
used!
accept
accept
accept
accept
weight of 0 is 2.354153
weight of 1 is 2.500136
weight of 2 is -2.777778
weight of 3 is 4.000000
used!
weight of 0 is 2.861302
weight of 1 is 2.500158
weight of 2 is -2.422222
weight of 3 is 5.000000
used!
accept
accept
accept
accept
accept
accept
accept
accept
accept
accept
weight of 0 is 2.366593
weight of 1 is 2.500101
weight of 2 is -2.422222
weight of 3 is 4.000000
not used!
accept
accept
accept
accept
accept
accept
accept
accept
accept
accept
weight of 0 is 1.871354
weight of 1 is 2.446555
weight of 2 is -2.644444
weight of 3 is 3.000000
not used!
accept
accept
weight of 0 is 1.376883
weight of 1 is 2.373075
weight of 2 is -2.644444
weight of 3 is 2.000000
not used!
accept
accept
accept
accept
accept
accept
accept
accept
accept
accept
weight of 0 is 0.855644
weight of 1 is 2.373042
weight of 2 is -2.822222
weight of 3 is 1.000000
not used!
accept
accept
accept
accept
weight of 0 is 0.334403
weight of 1 is 2.372931
weight of 2 is -2.822222
weight of 3 is 0.000000
not used!
deny
deny
accept
accept
weight of 0 is -0.186838
weight of 1 is 2.372875
weight of 2 is -2.822222
weight of 3 is -1.000000
not used!
deny
deny
weight of 0 is 0.320317
weight of 1 is 2.372896
weight of 2 is -2.466667
weight of 3 is 0.000000
used!
weight of 0 is 0.827473
weight of 1 is 2.372917
weight of 2 is -2.111111
weight of 3 is 1.000000
used!
accept
accept
accept
accept
weight of 0 is 0.332764
weight of 1 is 0.213254
weight of 2 is -2.111111
weight of 3 is 0.000000
not used!
weight of 0 is -0.188479
weight of 1 is -1.946419
weight of 2 is -2.111111
weight of 3 is -1.000000
not used!
deny
deny
weight of 0 is -0.683188
weight of 1 is -4.122193
weight of 2 is -2.111111
weight of 3 is -2.000000
not used!
deny
deny
deny
deny
weight of 0 is -0.176032
weight of 1 is -2.981585
weight of 2 is -1.755556
weight of 3 is -1.000000
used!
weight of 0 is 0.331125
weight of 1 is -1.840976
weight of 2 is -1.400000
weight of 3 is 0.000000
used!
accept
accept
weight of 0 is 0.838282
weight of 1 is -1.840962
weight of 2 is -1.400000
weight of 3 is 1.000000
used!
weight of 0 is 1.345439
weight of 1 is -1.840948
weight of 2 is -1.400000
weight of 3 is 2.000000
used!
accept
accept
accept
accept
weight of 0 is 0.850730
weight of 1 is -1.841004
weight of 2 is -1.400000
weight of 3 is 1.000000
not used!
accept
accept
weight of 0 is 0.355492
weight of 1 is -1.884011
weight of 2 is -1.577778
weight of 3 is 0.000000
not used!
accept
accept
accept
accept
weight of 0 is -0.139217
weight of 1 is -1.884067
weight of 2 is -1.577778
weight of 3 is -1.000000
not used!
deny
deny
deny
deny
deny
deny
deny
deny
deny
deny
weight of 0 is 0.367943
weight of 1 is -0.743571
weight of 2 is -1.222222
weight of 3 is 0.000000
used!
weight of 0 is 0.875102
weight of 1 is 0.396925
weight of 2 is -0.866667
weight of 3 is 1.000000
used!
accept
accept
weight of 0 is 1.382262
weight of 1 is 1.537426
weight of 2 is -0.866667
weight of 3 is 2.000000
used!
weight of 0 is 1.889422
weight of 1 is 2.677926
weight of 2 is -0.866667
weight of 3 is 3.000000
used!
accept
accept
weight of 0 is 2.410593
weight of 1 is 3.818479
weight of 2 is -0.866667
weight of 3 is 4.000000
used!
weight of 0 is 2.931764
weight of 1 is 4.959031
weight of 2 is -0.866667
weight of 3 is 5.000000
used!
accept
accept
weight of 0 is 3.438924
weight of 1 is 4.959052
weight of 2 is -0.688889
weight of 3 is 6.000000
used!
weight of 0 is 3.946084
weight of 1 is 4.959073
weight of 2 is -0.511111
weight of 3 is 7.000000
used!
accept
accept
accept
accept
accept
accept
accept
accept
accept
accept
accept
accept
accept
accept
accept
accept
accept
accept
accept
accept
accept
accept
accept
accept
accept
accept
accept
accept
accept
accept
accept
accept
accept
accept
accept
accept
accept
accept
accept
accept
accept
accept
accept
accept
accept
accept
weight of 0 is 3.424834
weight of 1 is 4.959017
weight of 2 is -0.511111
weight of 3 is 6.000000
not used!
accept
accept
accept
accept
weight of 0 is 2.903583
weight of 1 is 2.822078
weight of 2 is -0.511111
weight of 3 is 5.000000
not used!
accept
accept
accept
accept
accept
accept
accept
accept
accept
accept
weight of 0 is 2.408873
weight of 1 is 0.644876
weight of 2 is -0.511111
weight of 3 is 4.000000
not used!
accept
accept
accept
accept
accept
accept
accept
accept
accept
accept
accept
accept
accept
accept
accept
accept
accept
accept
accept
accept
weight of 0 is 1.914164
weight of 1 is 0.636948
weight of 2 is -0.511111
weight of 3 is 3.000000
not used!
accept
accept
accept
accept
accept
accept
accept
accept
accept
accept
accept
accept
accept
accept
accept
accept
accept
accept
accept
accept
accept
accept
accept
accept
accept
accept
accept
accept
accept
accept
weight of 0 is 1.419455
weight of 1 is 0.636628
weight of 2 is -0.511111
weight of 3 is 2.000000
not used!
accept
accept
accept
accept
accept
accept
weight of 0 is 0.924746
weight of 1 is 0.636384
weight of 2 is -0.511111
weight of 3 is 1.000000
not used!
accept
accept
accept
accept
accept
accept
accept
accept
accept
accept
weight of 0 is 0.417607
weight of 1 is 0.636363
weight of 2 is -0.688889
weight of 3 is 0.000000
not used!
weight of 0 is -0.089532
weight of 1 is 0.636342
weight of 2 is -1.044444
weight of 3 is -1.000000
not used!
deny
deny
weight of 0 is -0.596671
weight of 1 is -0.505192
weight of 2 is -1.044444
weight of 3 is -2.000000
not used!
deny
deny
weight of 0 is -1.103810
weight of 1 is -0.505234
weight of 2 is -1.400000
weight of 3 is -3.000000
not used!
deny
deny
weight of 0 is -0.596632
weight of 1 is -0.505213
weight of 2 is -1.044444
weight of 3 is -2.000000
used!
weight of 0 is -0.089454
weight of 1 is -0.505192
weight of 2 is -0.688889
weight of 3 is -1.000000
used!
weight of 0 is -0.596593
weight of 1 is -0.505206
weight of 2 is -0.688889
weight of 3 is -2.000000
not used!
weight of 0 is -1.103733
weight of 1 is -0.505227
weight of 2 is -0.866667
weight of 3 is -3.000000
not used!
deny
deny
weight of 0 is -0.596555
weight of 1 is -0.505213
weight of 2 is -0.866667
weight of 3 is -2.000000
used!
weight of 0 is -0.089376
weight of 1 is -0.505199
weight of 2 is -0.866667
weight of 3 is -1.000000
used!
weight of 0 is -0.596516
weight of 1 is -0.505220
weight of 2 is -1.222222
weight of 3 is -2.000000
not used!
weight of 0 is -1.103657
weight of 1 is -0.505234
weight of 2 is -1.222222
weight of 3 is -3.000000
not used!
deny
deny
weight of 0 is -0.596478
weight of 1 is -0.505213
weight of 2 is -1.044444
weight of 3 is -2.000000
used!
weight of 0 is -0.089299
weight of 1 is -0.505192
weight of 2 is -0.866667
weight of 3 is -1.000000
used!
weight of 0 is -0.596440
weight of 1 is -0.505213
weight of 2 is -1.044444
weight of 3 is -2.000000
not used!
deny
deny
weight of 0 is -1.103580
weight of 1 is -0.505234
weight of 2 is -1.400000
weight of 3 is -3.000000
not used!
weight of 0 is -1.610721
weight of 1 is -0.505248
weight of 2 is -1.400000
weight of 3 is -4.000000
not used!
deny
deny
weight of 0 is -1.103543
weight of 1 is -0.505227
weight of 2 is -1.044444
weight of 3 is -3.000000
used!
weight of 0 is -0.596363
weight of 1 is -0.505206
weight of 2 is -0.688889
weight of 3 is -2.000000
used!
weight of 0 is -1.103505
weight of 1 is -0.505227
weight of 2 is -0.866667
weight of 3 is -3.000000
not used!
weight of 0 is -1.610646
weight of 1 is -0.505248
weight of 2 is -1.222222
weight of 3 is -4.000000
not used!
deny
deny
weight of 0 is -1.103467
weight of 1 is -0.505234
weight of 2 is -1.222222
weight of 3 is -3.000000
used!
weight of 0 is -0.596288
weight of 1 is -0.505220
weight of 2 is -1.222222
weight of 3 is -2.000000
used!
deny
deny
weight of 0 is -0.089108
weight of 1 is 0.634395
weight of 2 is -1.044444
weight of 3 is -1.000000
used!
weight of 0 is 0.418071
weight of 1 is 1.774010
weight of 2 is -0.866667
weight of 3 is 0.000000
used!
weight of 0 is -0.089071
weight of 1 is 1.773996
weight of 2 is -0.866667
weight of 3 is -1.000000
not used!
accept
accept
weight of 0 is -0.596213
weight of 1 is 1.773975
weight of 2 is -1.044444
weight of 3 is -2.000000
not used!
deny
deny
weight of 0 is -0.089033
weight of 1 is 1.773996
weight of 2 is -0.688889
weight of 3 is -1.000000
used!
weight of 0 is 0.418147
weight of 1 is 1.774017
weight of 2 is -0.333333
weight of 3 is 0.000000
used!
weight of 0 is -0.088995
weight of 1 is 1.773996
weight of 2 is -0.688889
weight of 3 is -1.000000
not used!
deny
deny
weight of 0 is 0.418185
weight of 1 is 1.774010
weight of 2 is -0.688889
weight of 3 is 0.000000
used!
weight of 0 is 0.925365
weight of 1 is 1.774024
weight of 2 is -0.688889
weight of 3 is 1.000000
used!
accept
accept
weight of 0 is 1.432545
weight of 1 is 2.913602
weight of 2 is -0.511111
weight of 3 is 2.000000
used!
weight of 0 is 1.939725
weight of 1 is 4.053180
weight of 2 is -0.333333
weight of 3 is 3.000000
used!
accept
accept
weight of 0 is 2.446905
weight of 1 is 4.053201
weight of 2 is 0.022222
weight of 3 is 4.000000
used!
weight of 0 is 2.954086
weight of 1 is 4.053222
weight of 2 is 0.377778
weight of 3 is 5.000000
used!
accept
accept
weight of 0 is 2.446943
weight of 1 is 4.053166
weight of 2 is 0.377778
weight of 3 is 4.000000
not used!
weight of 0 is 1.939799
weight of 1 is 4.053145
weight of 2 is 0.200000
weight of 3 is 3.000000
not used!
accept
accept
weight of 0 is 1.432656
weight of 1 is 4.053124
weight of 2 is -0.155556
weight of 3 is 2.000000
not used!
accept
accept
weight of 0 is 0.925512
weight of 1 is 4.053109
weight of 2 is -0.155556
weight of 3 is 1.000000
not used!
accept
accept
weight of 0 is 0.418368
weight of 1 is 4.053088
weight of 2 is -0.333333
weight of 3 is 0.000000
not used!
accept
accept
accept
accept
accept
accept
accept
accept
accept
accept
weight of 0 is -0.088777
weight of 1 is 4.053032
weight of 2 is -0.688889
weight of 3 is -1.000000
not used!
deny
deny
weight of 0 is -0.595922
weight of 1 is 4.053018
weight of 2 is -0.688889
weight of 3 is -2.000000
not used!
weight of 0 is -1.103068
weight of 1 is 4.052997
weight of 2 is -0.866667
weight of 3 is -3.000000
not used!
deny
deny
weight of 0 is -0.595885
weight of 1 is 4.053018
weight of 2 is -0.511111
weight of 3 is -2.000000
used!
weight of 0 is -0.088701
weight of 1 is 4.053039
weight of 2 is -0.155556
weight of 3 is -1.000000
used!
deny
deny
deny
deny
weight of 0 is 0.418482
weight of 1 is 4.053074
weight of 2 is 0.022222
weight of 3 is 0.000000
used!
weight of 0 is 0.925666
weight of 1 is 4.053109
weight of 2 is 0.200000
weight of 3 is 1.000000
used!
accept
accept
weight of 0 is 0.418520
weight of 1 is 4.053053
weight of 2 is -0.155556
weight of 3 is 0.000000
not used!
accept
accept
weight of 0 is 0.925703
weight of 1 is 4.053074
weight of 2 is 0.200000
weight of 3 is 1.000000
used!
weight of 0 is 1.432887
weight of 1 is 4.053095
weight of 2 is 0.555556
weight of 3 is 2.000000
used!
accept
accept
weight of 0 is 1.940071
weight of 1 is 4.053109
weight of 2 is 0.555556
weight of 3 is 3.000000
used!
weight of 0 is 2.447255
weight of 1 is 4.053124
weight of 2 is 0.555556
weight of 3 is 4.000000
used!
weight of 0 is 1.940109
weight of 1 is 4.053109
weight of 2 is 0.555556
weight of 3 is 3.000000
not used!
weight of 0 is 1.432962
weight of 1 is 4.053088
weight of 2 is 0.377778
weight of 3 is 2.000000
not used!
accept
accept
accept
accept
accept
accept
accept
accept
accept
accept
accept
accept
weight of 0 is 0.925814
weight of 1 is 4.053032
weight of 2 is 0.377778
weight of 3 is 1.000000
not used!
accept
accept
accept
accept
weight of 0 is 0.418666
weight of 1 is 4.053011
weight of 2 is 0.200000
weight of 3 is 0.000000
not used!
accept
accept
accept
accept
weight of 0 is -0.088484
weight of 1 is 4.052997
weight of 2 is 0.200000
weight of 3 is -1.000000
not used!
accept
accept
accept
accept
deny
deny
deny
deny
deny
deny
weight of 0 is 0.418704
weight of 1 is 4.053053
weight of 2 is 0.555556
weight of 3 is 0.000000
used!
weight of 0 is 0.925892
weight of 1 is 4.053109
weight of 2 is 0.911111
weight of 3 is 1.000000
used!
weight of 0 is 0.418742
weight of 1 is 4.053053
weight of 2 is 0.733333
weight of 3 is 0.000000
not used!
accept
accept
weight of 0 is 0.925930
weight of 1 is 4.053067
weight of 2 is 0.733333
weight of 3 is 1.000000
used!
weight of 0 is 1.433119
weight of 1 is 4.053081
weight of 2 is 0.733333
weight of 3 is 2.000000
used!
weight of 0 is 0.925968
weight of 1 is 4.053060
weight of 2 is 0.377778
weight of 3 is 1.000000
not used!
accept
accept
weight of 0 is 0.418817
weight of 1 is 4.053046
weight of 2 is 0.377778
weight of 3 is 0.000000
not used!
accept
accept
accept
accept
accept
accept
accept
accept
weight of 0 is -0.088334
weight of 1 is 2.912191
weight of 2 is 0.200000
weight of 3 is -1.000000
not used!
weight of 0 is -0.595486
weight of 1 is 2.912170
weight of 2 is -0.155556
weight of 3 is -2.000000
not used!
weight of 0 is -1.102638
weight of 1 is 2.912156
weight of 2 is -0.155556
weight of 3 is -3.000000
not used!
weight of 0 is -1.609791
weight of 1 is 2.912134
weight of 2 is -0.333333
weight of 3 is -4.000000
not used!
deny
deny
deny
deny
deny
deny
deny
deny
deny
deny
weight of 0 is -1.102600
weight of 1 is 4.051320
weight of 2 is -0.155556
weight of 3 is -3.000000
used!
weight of 0 is -0.595410
weight of 1 is 5.190506
weight of 2 is 0.022222
weight of 3 is -2.000000
used!
weight of 0 is -1.102563
weight of 1 is 5.190449
weight of 2 is 0.022222
weight of 3 is -3.000000
not used!
accept
accept
weight of 0 is -0.581377
weight of 1 is 6.329698
weight of 2 is 0.733333
weight of 3 is -2.000000
used!
weight of 0 is -0.060190
weight of 1 is 7.468947
weight of 2 is 1.444444
weight of 3 is -1.000000
used!
accept
accept
weight of 0 is 0.447001
weight of 1 is 8.608175
weight of 2 is 1.800000
weight of 3 is 0.000000
used!
weight of 0 is 0.954192
weight of 1 is 9.747403
weight of 2 is 2.155556
weight of 3 is 1.000000
used!
weight of 0 is 0.447038
weight of 1 is 9.747382
weight of 2 is 1.977778
weight of 3 is 0.000000
not used!
weight of 0 is -0.060116
weight of 1 is 9.747360
weight of 2 is 1.622222
weight of 3 is -1.000000
not used!
weight of 0 is -0.567270
weight of 1 is 9.747346
weight of 2 is 1.622222
weight of 3 is -2.000000
not used!
accept
accept
weight of 0 is -1.074425
weight of 1 is 8.606660
weight of 2 is 1.444444
weight of 3 is -3.000000
not used!
accept
accept
deny
deny
weight of 0 is -1.581581
weight of 1 is 8.606646
weight of 2 is 1.444444
weight of 3 is -4.000000
not used!
deny
deny
accept
accept
accept
accept
weight of 0 is -1.074389
weight of 1 is 8.606667
weight of 2 is 1.800000
weight of 3 is -3.000000
used!
weight of 0 is -0.567197
weight of 1 is 8.606688
weight of 2 is 2.155556
weight of 3 is -2.000000
used!
deny
deny
weight of 0 is -0.060004
weight of 1 is 8.606702
weight of 2 is 2.155556
weight of 3 is -1.000000
used!
weight of 0 is 0.447188
weight of 1 is 8.606716
weight of 2 is 2.155556
weight of 3 is 0.000000
used!
accept
accept
accept
accept
weight of 0 is 0.954381
weight of 1 is 8.606738
weight of 2 is 2.511111
weight of 3 is 1.000000
used!
weight of 0 is 1.461574
weight of 1 is 8.606759
weight of 2 is 2.866667
weight of 3 is 2.000000
used!
accept
accept
accept
accept
accept
accept
accept
accept
weight of 0 is 0.954416
weight of 1 is 7.466206
weight of 2 is 2.511111
weight of 3 is 1.000000
not used!
accept
accept
weight of 0 is 0.447258
weight of 1 is 7.466192
weight of 2 is 2.511111
weight of 3 is 0.000000
not used!
accept
accept
accept
accept
weight of 0 is -0.059901
weight of 1 is 7.466171
weight of 2 is 2.333333
weight of 3 is -1.000000
not used!
accept
accept
deny
deny
deny
deny
deny
deny
weight of 0 is 0.447295
weight of 1 is 7.466185
weight of 2 is 2.333333
weight of 3 is 0.000000
used!
weight of 0 is 0.954491
weight of 1 is 7.466199
weight of 2 is 2.333333
weight of 3 is 1.000000
used!
accept
accept
weight of 0 is 1.461687
weight of 1 is 7.466221
weight of 2 is 2.511111
weight of 3 is 2.000000
used!
weight of 0 is 1.968883
weight of 1 is 7.466242
weight of 2 is 2.688889
weight of 3 is 3.000000
used!
weight of 0 is 1.461723
weight of 1 is 7.466221
weight of 2 is 2.333333
weight of 3 is 2.000000
not used!
accept
accept
accept
accept
weight of 0 is 1.968919
weight of 1 is 7.466242
weight of 2 is 2.688889
weight of 3 is 3.000000
used!
weight of 0 is 2.476115
weight of 1 is 7.466263
weight of 2 is 3.044444
weight of 3 is 4.000000
used!
accept
accept
accept
accept
weight of 0 is 1.968954
weight of 1 is 7.466206
weight of 2 is 3.044444
weight of 3 is 3.000000
not used!
accept
accept
weight of 0 is 1.461793
weight of 1 is 7.466185
weight of 2 is 2.866667
weight of 3 is 2.000000
not used!
accept
accept
weight of 0 is 0.954631
weight of 1 is 7.466164
weight of 2 is 2.511111
weight of 3 is 1.000000
not used!
weight of 0 is 0.447469
weight of 1 is 7.466150
weight of 2 is 2.511111
weight of 3 is 0.000000
not used!
accept
accept
accept
accept
accept
accept
weight of 0 is -0.059693
weight of 1 is 7.466094
weight of 2 is 2.333333
weight of 3 is -1.000000
not used!
deny
deny
deny
deny
deny
deny
weight of 0 is 0.447506
weight of 1 is 7.466115
weight of 2 is 2.688889
weight of 3 is 0.000000
used!
weight of 0 is 0.954705
weight of 1 is 7.466136
weight of 2 is 3.044444
weight of 3 is 1.000000
used!
accept
accept
accept
accept
weight of 0 is 1.461904
weight of 1 is 7.466150
weight of 2 is 3.044444
weight of 3 is 2.000000
used!
weight of 0 is 1.969104
weight of 1 is 7.466164
weight of 2 is 3.044444
weight of 3 is 3.000000
used!
weight of 0 is 1.461940
weight of 1 is 7.466108
weight of 2 is 2.688889
weight of 3 is 2.000000
not used!
weight of 0 is 0.954776
weight of 1 is 7.466094
weight of 2 is 2.688889
weight of 3 is 1.000000
not used!
accept
accept
weight of 0 is 0.447612
weight of 1 is 7.466073
weight of 2 is 2.511111
weight of 3 is 0.000000
not used!
accept
accept
accept
accept
accept
accept
accept
accept
accept
accept
weight of 0 is -0.059553
weight of 1 is 7.466016
weight of 2 is 2.155556
weight of 3 is -1.000000
not used!
weight of 0 is -0.566718
weight of 1 is 7.466002
weight of 2 is 2.155556
weight of 3 is -2.000000
not used!
weight of 0 is -1.073884
weight of 1 is 7.465981
weight of 2 is 1.977778
weight of 3 is -3.000000
not used!
accept
accept
deny
deny
deny
deny
deny
deny
weight of 0 is -0.566682
weight of 1 is 7.466002
weight of 2 is 2.155556
weight of 3 is -2.000000
used!
weight of 0 is -0.059479
weight of 1 is 7.466023
weight of 2 is 2.333333
weight of 3 is -1.000000
used!
deny
deny
weight of 0 is 0.447723
weight of 1 is 7.466044
weight of 2 is 2.688889
weight of 3 is 0.000000
used!
weight of 0 is 0.954926
weight of 1 is 7.466066
weight of 2 is 3.044444
weight of 3 is 1.000000
used!
weight of 0 is 0.447759
weight of 1 is 6.325851
weight of 2 is 2.688889
weight of 3 is 0.000000
not used!
accept
accept
weight of 0 is -0.059407
weight of 1 is 6.325837
weight of 2 is 2.688889
weight of 3 is -1.000000
not used!
accept
accept
weight of 0 is 0.447795
weight of 1 is 6.325851
weight of 2 is 2.688889
weight of 3 is 0.000000
used!
weight of 0 is 0.954998
weight of 1 is 6.325865
weight of 2 is 2.688889
weight of 3 is 1.000000
used!
weight of 0 is 0.447831
weight of 1 is 6.325844
weight of 2 is 2.511111
weight of 3 is 0.000000
not used!
accept
accept
weight of 0 is 0.955034
weight of 1 is 6.325865
weight of 2 is 2.688889
weight of 3 is 1.000000
used!
weight of 0 is 1.462237
weight of 1 is 6.325887
weight of 2 is 2.866667
weight of 3 is 2.000000
used!
weight of 0 is 0.955070
weight of 1 is 6.325865
weight of 2 is 2.511111
weight of 3 is 1.000000
not used!
weight of 0 is 0.447903
weight of 1 is 6.325851
weight of 2 is 2.511111
weight of 3 is 0.000000
not used!
accept
accept
weight of 0 is -0.059265
weight of 1 is 6.325830
weight of 2 is 2.333333
weight of 3 is -1.000000
not used!
accept
accept
accept
accept
weight of 0 is -0.566433
weight of 1 is 6.325774
weight of 2 is 1.977778
weight of 3 is -2.000000
not used!
deny
deny
deny
deny
weight of 0 is -1.073602
weight of 1 is 6.325760
weight of 2 is 1.977778
weight of 3 is -3.000000
not used!
accept
accept
weight of 0 is -1.580771
weight of 1 is 6.325739
weight of 2 is 1.800000
weight of 3 is -4.000000
not used!
accept
accept
weight of 0 is -1.073566
weight of 1 is 6.325795
weight of 2 is 1.800000
weight of 3 is -3.000000
used!
weight of 0 is -0.566361
weight of 1 is 6.325851
weight of 2 is 1.800000
weight of 3 is -2.000000
used!
weight of 0 is -1.073530
weight of 1 is 6.325830
weight of 2 is 1.444444
weight of 3 is -3.000000
not used!
accept
accept
accept
accept
weight of 0 is -1.580701
weight of 1 is 6.325774
weight of 2 is 1.444444
weight of 3 is -4.000000
not used!
deny
deny
weight of 0 is -2.087871
weight of 1 is 6.325753
weight of 2 is 1.266667
weight of 3 is -5.000000
not used!
accept
accept
accept
accept
weight of 0 is -2.595042
weight of 1 is 6.325732
weight of 2 is 0.911111
weight of 3 is -6.000000
not used!
weight of 0 is -3.102212
weight of 1 is 6.325718
weight of 2 is 0.911111
weight of 3 is -7.000000
not used!
deny
deny
deny
deny
deny
deny
weight of 0 is -2.595005
weight of 1 is 6.325774
weight of 2 is 1.088889
weight of 3 is -6.000000
used!
weight of 0 is -2.087798
weight of 1 is 6.325830
weight of 2 is 1.266667
weight of 3 is -5.000000
used!
deny
deny
weight of 0 is -1.580591
weight of 1 is 6.325851
weight of 2 is 1.622222
weight of 3 is -4.000000
used!
weight of 0 is -1.073383
weight of 1 is 6.325873
weight of 2 is 1.977778
weight of 3 is -3.000000
used!
weight of 0 is -1.580555
weight of 1 is 5.185919
weight of 2 is 1.800000
weight of 3 is -4.000000
not used!
deny
deny
weight of 0 is -1.073347
weight of 1 is 5.185933
weight of 2 is 1.800000
weight of 3 is -3.000000
used!
weight of 0 is -0.566140
weight of 1 is 5.185947
weight of 2 is 1.800000
weight of 3 is -2.000000
used!
weight of 0 is -1.073312
weight of 1 is 5.185926
weight of 2 is 1.444444
weight of 3 is -3.000000
not used!
deny
deny
weight of 0 is -0.566104
weight of 1 is 5.185947
weight of 2 is 1.622222
weight of 3 is -2.000000
used!
weight of 0 is -0.058896
weight of 1 is 5.185968
weight of 2 is 1.800000
weight of 3 is -1.000000
used!
accept
accept
accept
accept
weight of 0 is 0.448312
weight of 1 is 5.185990
weight of 2 is 2.155556
weight of 3 is 0.000000
used!
weight of 0 is 0.955520
weight of 1 is 5.186011
weight of 2 is 2.511111
weight of 3 is 1.000000
used!
accept
accept
weight of 0 is 0.448347
weight of 1 is 5.185954
weight of 2 is 2.511111
weight of 3 is 0.000000
not used!
accept
accept
accept
accept
accept
accept
weight of 0 is -0.058826
weight of 1 is 4.046057
weight of 2 is 2.333333
weight of 3 is -1.000000
not used!
deny
deny
weight of 0 is -0.566000
weight of 1 is 4.046036
weight of 2 is 1.977778
weight of 3 is -2.000000
not used!
weight of 0 is -1.073175
weight of 1 is 4.046022
weight of 2 is 1.977778
weight of 3 is -3.000000
not used!
deny
deny
accept
accept
weight of 0 is -1.580349
weight of 1 is 4.046001
weight of 2 is 1.800000
weight of 3 is -4.000000
not used!
accept
accept
weight of 0 is -1.073139
weight of 1 is 4.046015
weight of 2 is 1.800000
weight of 3 is -3.000000
used!
weight of 0 is -0.565928
weight of 1 is 4.046029
weight of 2 is 1.800000
weight of 3 is -2.000000
used!
weight of 0 is -1.073103
weight of 1 is 4.046008
weight of 2 is 1.444444
weight of 3 is -3.000000
not used!
weight of 0 is -1.580278
weight of 1 is 4.045994
weight of 2 is 1.444444
weight of 3 is -4.000000
not used!
deny
deny
weight of 0 is -1.073068
weight of 1 is 4.046015
weight of 2 is 1.622222
weight of 3 is -3.000000
used!
weight of 0 is -0.565857
weight of 1 is 4.046036
weight of 2 is 1.800000
weight of 3 is -2.000000
used!
accept
accept
accept
accept
weight of 0 is -0.058646
weight of 1 is 4.046050
weight of 2 is 1.800000
weight of 3 is -1.000000
used!
weight of 0 is 0.448565
weight of 1 is 4.046064
weight of 2 is 1.800000
weight of 3 is 0.000000
used!
accept
accept
weight of 0 is -0.058611
weight of 1 is 4.046008
weight of 2 is 1.622222
weight of 3 is -1.000000
not used!
deny
deny
deny
deny
weight of 0 is -0.565787
weight of 1 is 4.045987
weight of 2 is 1.266667
weight of 3 is -2.000000
not used!
deny
deny
weight of 0 is -0.058575
weight of 1 is 4.046008
weight of 2 is 1.444444
weight of 3 is -1.000000
used!
weight of 0 is 0.448637
weight of 1 is 4.046029
weight of 2 is 1.622222
weight of 3 is 0.000000
used!
weight of 0 is -0.058539
weight of 1 is 4.046015
weight of 2 is 1.622222
weight of 3 is -1.000000
not used!
deny
deny
weight of 0 is 0.448673
weight of 1 is 4.046036
weight of 2 is 1.977778
weight of 3 is 0.000000
used!
weight of 0 is 0.955885
weight of 1 is 4.046057
weight of 2 is 2.333333
weight of 3 is 1.000000
used!
accept
accept
weight of 0 is 1.463098
weight of 1 is 4.046071
weight of 2 is 2.333333
weight of 3 is 2.000000
used!
weight of 0 is 1.970310
weight of 1 is 4.046085
weight of 2 is 2.333333
weight of 3 is 3.000000
used!
weight of 0 is 1.463134
weight of 1 is 4.046064
weight of 2 is 2.155556
weight of 3 is 2.000000
not used!
accept
accept
weight of 0 is 1.970346
weight of 1 is 4.046085
weight of 2 is 2.333333
weight of 3 is 3.000000
used!
weight of 0 is 2.477559
weight of 1 is 4.046107
weight of 2 is 2.511111
weight of 3 is 4.000000
used!
weight of 0 is 1.970382
weight of 1 is 4.046085
weight of 2 is 2.155556
weight of 3 is 3.000000
not used!
accept
accept
accept
accept
weight of 0 is 1.463205
weight of 1 is 4.046071
weight of 2 is 2.155556
weight of 3 is 2.000000
not used!
accept
accept
accept
accept
accept
accept
accept
accept
weight of 0 is 0.956027
weight of 1 is 4.046015
weight of 2 is 1.977778
weight of 3 is 1.000000
not used!
accept
accept
accept
accept
accept
accept
accept
accept
accept
accept
accept
accept
accept
accept
accept
accept
accept
accept
accept
accept
weight of 0 is 0.448847
weight of 1 is 4.046001
weight of 2 is 1.977778
weight of 3 is 0.000000
not used!
weight of 0 is -0.058334
weight of 1 is 4.045980
weight of 2 is 1.800000
weight of 3 is -1.000000
not used!
deny
deny
weight of 0 is -0.565515
weight of 1 is 4.045959
weight of 2 is 1.444444
weight of 3 is -2.000000
not used!
deny
deny
deny
deny
weight of 0 is -0.058297
weight of 1 is 4.046015
weight of 2 is 1.622222
weight of 3 is -1.000000
used!
weight of 0 is 0.448921
weight of 1 is 4.046071
weight of 2 is 1.800000
weight of 3 is 0.000000
used!
weight of 0 is -0.058260
weight of 1 is 4.046036
weight of 2 is 1.622222
weight of 3 is -1.000000
not used!
deny
deny
weight of 0 is 0.448958
weight of 1 is 4.046057
weight of 2 is 1.977778
weight of 3 is 0.000000
used!
weight of 0 is 0.956177
weight of 1 is 4.046078
weight of 2 is 2.333333
weight of 3 is 1.000000
used!
weight of 0 is 0.448995
weight of 1 is 4.046057
weight of 2 is 1.977778
weight of 3 is 0.000000
not used!
weight of 0 is -0.058187
weight of 1 is 4.046043
weight of 2 is 1.977778
weight of 3 is -1.000000
not used!
deny
deny
weight of 0 is 0.449032
weight of 1 is 4.046057
weight of 2 is 1.977778
weight of 3 is 0.000000
used!
weight of 0 is 0.956251
weight of 1 is 4.046071
weight of 2 is 1.977778
weight of 3 is 1.000000
used!
accept
accept
weight of 0 is 1.463470
weight of 1 is 4.046092
weight of 2 is 2.155556
weight of 3 is 2.000000
used!
weight of 0 is 1.970689
weight of 1 is 4.046114
weight of 2 is 2.333333
weight of 3 is 3.000000
used!
weight of 0 is 1.463506
weight of 1 is 2.906649
weight of 2 is 2.155556
weight of 3 is 2.000000
not used!
accept
accept
accept
accept
weight of 0 is 1.970726
weight of 1 is 2.906670
weight of 2 is 2.511111
weight of 3 is 3.000000
used!
weight of 0 is 2.477945
weight of 1 is 2.906691
weight of 2 is 2.866667
weight of 3 is 4.000000
used!
weight of 0 is 1.970762
weight of 1 is 2.906670
weight of 2 is 2.511111
weight of 3 is 3.000000
not used!
weight of 0 is 1.463580
weight of 1 is 2.906656
weight of 2 is 2.511111
weight of 3 is 2.000000
not used!
weight of 0 is 0.956397
weight of 1 is 2.906634
weight of 2 is 2.333333
weight of 3 is 1.000000
not used!
accept
accept
accept
accept
accept
accept
accept
accept
accept
accept
weight of 0 is 0.449213
weight of 1 is 1.767282
weight of 2 is 2.155556
weight of 3 is 0.000000
not used!
accept
accept
weight of 0 is -0.057972
weight of 1 is 1.767261
weight of 2 is 1.800000
weight of 3 is -1.000000
not used!
accept
accept
accept
accept
weight of 0 is -0.565156
weight of 1 is 1.767247
weight of 2 is 1.800000
weight of 3 is -2.000000
not used!
weight of 0 is -1.072341
weight of 1 is 1.767226
weight of 2 is 1.622222
weight of 3 is -3.000000
not used!
weight of 0 is -1.579526
weight of 1 is 1.767205
weight of 2 is 1.266667
weight of 3 is -4.000000
not used!
weight of 0 is -2.086712
weight of 1 is 1.767191
weight of 2 is 1.266667
weight of 3 is -5.000000
not used!
deny
deny
weight of 0 is -2.593897
weight of 1 is 1.767169
weight of 2 is 1.088889
weight of 3 is -6.000000
not used!
weight of 0 is -3.101083
weight of 1 is 1.767148
weight of 2 is 0.733333
weight of 3 is -7.000000
not used!
deny
deny
weight of 0 is -3.622266
weight of 1 is 0.627874
weight of 2 is 0.733333
weight of 3 is -8.000000
not used!
deny
deny
weight of 0 is -3.115043
weight of 1 is 0.627930
weight of 2 is 0.911111
weight of 3 is -7.000000
used!
weight of 0 is -2.607821
weight of 1 is 0.627986
weight of 2 is 1.088889
weight of 3 is -6.000000
used!
deny
deny
weight of 0 is -2.100598
weight of 1 is 0.628007
weight of 2 is 1.444444
weight of 3 is -5.000000
used!
weight of 0 is -1.593375
weight of 1 is 0.628029
weight of 2 is 1.800000
weight of 3 is -4.000000
used!
deny
deny
weight of 0 is -1.086153
weight of 1 is 0.628043
weight of 2 is 1.800000
weight of 3 is -3.000000
used!
weight of 0 is -0.578930
weight of 1 is 0.628057
weight of 2 is 1.800000
weight of 3 is -2.000000
used!
deny
deny
weight of 0 is -0.071707
weight of 1 is 0.628078
weight of 2 is 1.977778
weight of 3 is -1.000000
used!
weight of 0 is 0.435516
weight of 1 is 0.628099
weight of 2 is 2.155556
weight of 3 is 0.000000
used!
weight of 0 is -0.071670
weight of 1 is 0.628043
weight of 2 is 2.155556
weight of 3 is -1.000000
not used!
weight of 0 is -0.578857
weight of 1 is 0.628022
weight of 2 is 1.977778
weight of 3 is -2.000000
not used!
deny
deny
deny
deny
weight of 0 is -0.071634
weight of 1 is 0.628043
weight of 2 is 2.333333
weight of 3 is -1.000000
used!
weight of 0 is 0.435589
weight of 1 is 0.628064
weight of 2 is 2.688889
weight of 3 is 0.000000
used!
accept
accept
weight of 0 is 0.942813
weight of 1 is 0.628078
weight of 2 is 2.688889
weight of 3 is 1.000000
used!
weight of 0 is 1.450037
weight of 1 is 0.628092
weight of 2 is 2.688889
weight of 3 is 2.000000
used!
accept
accept
weight of 0 is 1.957260
weight of 1 is 1.766016
weight of 2 is 2.866667
weight of 3 is 3.000000
used!
weight of 0 is 2.464484
weight of 1 is 2.903941
weight of 2 is 3.044444
weight of 3 is 4.000000
used!
accept
accept
accept
accept
weight of 0 is 1.943300
weight of 1 is 1.764722
weight of 2 is 3.044444
weight of 3 is 3.000000
not used!
weight of 0 is 1.436110
weight of 1 is 0.625560
weight of 2 is 2.688889
weight of 3 is 2.000000
not used!
weight of 0 is 0.928921
weight of 1 is 0.625546
weight of 2 is 2.688889
weight of 3 is 1.000000
not used!
weight of 0 is 0.407735
weight of 1 is -0.513696
weight of 2 is 2.511111
weight of 3 is 0.000000
not used!
accept
accept
accept
accept
accept
accept
accept
accept
accept
accept
accept
accept
accept
accept
weight of 0 is -0.099457
weight of 1 is -1.652916
weight of 2 is 2.333333
weight of 3 is -1.000000
not used!
deny
deny
weight of 0 is -0.606649
weight of 1 is -2.792147
weight of 2 is 2.155556
weight of 3 is -2.000000
not used!
deny
deny
weight of 0 is -1.113842
weight of 1 is -2.792161
weight of 2 is 2.155556
weight of 3 is -3.000000
not used!
deny
deny
deny
deny
weight of 0 is -0.606616
weight of 1 is -2.792118
weight of 2 is 2.511111
weight of 3 is -2.000000
used!
weight of 0 is -0.099389
weight of 1 is -2.792076
weight of 2 is 2.866667
weight of 3 is -1.000000
used!
weight of 0 is -0.606582
weight of 1 is -2.792097
weight of 2 is 2.688889
weight of 3 is -2.000000
not used!
weight of 0 is -1.113775
weight of 1 is -2.792118
weight of 2 is 2.333333
weight of 3 is -3.000000
not used!
deny
deny
deny
deny
weight of 0 is -0.606549
weight of 1 is -2.792104
weight of 2 is 2.333333
weight of 3 is -2.000000
used!
weight of 0 is -0.099321
weight of 1 is -2.792090
weight of 2 is 2.333333
weight of 3 is -1.000000
used!
deny
deny
weight of 0 is 0.421884
weight of 1 is -1.654239
weight of 2 is 2.333333
weight of 3 is 0.000000
used!
weight of 0 is 0.943091
weight of 1 is -0.516387
weight of 2 is 2.333333
weight of 3 is 1.000000
used!
accept
accept
weight of 0 is 1.450318
weight of 1 is 0.621444
weight of 2 is 2.511111
weight of 3 is 2.000000
used!
weight of 0 is 1.957545
weight of 1 is 1.759274
weight of 2 is 2.688889
weight of 3 is 3.000000
used!
accept
accept
weight of 0 is 2.478751
weight of 1 is 2.897123
weight of 2 is 2.688889
weight of 3 is 4.000000
used!
weight of 0 is 2.999957
weight of 1 is 4.034973
weight of 2 is 2.688889
weight of 3 is 5.000000
used!
weight of 0 is 2.492763
weight of 1 is 4.034916
weight of 2 is 2.688889
weight of 3 is 4.000000
not used!
accept
accept
weight of 0 is 1.985568
weight of 1 is 4.034895
weight of 2 is 2.511111
weight of 3 is 3.000000
not used!
accept
accept
accept
accept
accept
accept
weight of 0 is 1.478373
weight of 1 is 2.895808
weight of 2 is 2.155556
weight of 3 is 2.000000
not used!
accept
accept
accept
accept
accept
accept
weight of 0 is 0.971176
weight of 1 is 2.895794
weight of 2 is 2.155556
weight of 3 is 1.000000
not used!
accept
accept
weight of 0 is 0.463980
weight of 1 is 1.756743
weight of 2 is 1.977778
weight of 3 is 0.000000
not used!
accept
accept
accept
accept
weight of 0 is -0.043218
weight of 1 is 1.756707
weight of 2 is 1.977778
weight of 3 is -1.000000
not used!
weight of 0 is -0.550415
weight of 1 is 1.756686
weight of 2 is 1.800000
weight of 3 is -2.000000
not used!
deny
deny
weight of 0 is -1.057612
weight of 1 is 1.756665
weight of 2 is 1.444444
weight of 3 is -3.000000
not used!
deny
deny
deny
deny
weight of 0 is -0.550381
weight of 1 is 1.756721
weight of 2 is 1.622222
weight of 3 is -2.000000
used!
weight of 0 is -0.043150
weight of 1 is 1.756778
weight of 2 is 1.800000
weight of 3 is -1.000000
used!
accept
accept
weight of 0 is -0.550348
weight of 1 is 0.617818
weight of 2 is 1.800000
weight of 3 is -2.000000
not used!
deny
deny
weight of 0 is -0.043117
weight of 1 is 0.617839
weight of 2 is 2.155556
weight of 3 is -1.000000
used!
weight of 0 is 0.464115
weight of 1 is 0.617860
weight of 2 is 2.511111
weight of 3 is 0.000000
used!
accept
accept
weight of 0 is -0.043084
weight of 1 is 0.617839
weight of 2 is 2.333333
weight of 3 is -1.000000
not used!
deny
deny
weight of 0 is 0.464148
weight of 1 is 0.617853
weight of 2 is 2.333333
weight of 3 is 0.000000
used!
weight of 0 is 0.971380
weight of 1 is 0.617867
weight of 2 is 2.333333
weight of 3 is 1.000000
used!
accept
accept
weight of 0 is 1.478612
weight of 1 is 1.755554
weight of 2 is 2.511111
weight of 3 is 2.000000
used!
weight of 0 is 1.985844
weight of 1 is 2.893241
weight of 2 is 2.688889
weight of 3 is 3.000000
used!
accept
accept
accept
accept
weight of 0 is 1.478644
weight of 1 is 2.893185
weight of 2 is 2.333333
weight of 3 is 2.000000
not used!
weight of 0 is 0.971443
weight of 1 is 2.893171
weight of 2 is 2.333333
weight of 3 is 1.000000
not used!
accept
accept
accept
accept
weight of 0 is 0.464243
weight of 1 is 2.893150
weight of 2 is 2.155556
weight of 3 is 0.000000
not used!
accept
accept
weight of 0 is -0.042959
weight of 1 is 2.893129
weight of 2 is 1.800000
weight of 3 is -1.000000
not used!
accept
accept
deny
deny
weight of 0 is -0.550161
weight of 1 is 1.754338
weight of 2 is 1.800000
weight of 3 is -2.000000
not used!
deny
deny
deny
deny
deny
deny
weight of 0 is -0.042926
weight of 1 is 1.754359
weight of 2 is 1.977778
weight of 3 is -1.000000
used!
weight of 0 is 0.464309
weight of 1 is 1.754380
weight of 2 is 2.155556
weight of 3 is 0.000000
used!
accept
accept
weight of 0 is 0.985529
weight of 1 is 2.892739
weight of 2 is 2.333333
weight of 3 is 1.000000
used!
weight of 0 is 1.506749
weight of 1 is 4.031098
weight of 2 is 2.511111
weight of 3 is 2.000000
used!
accept
accept
weight of 0 is 0.999546
weight of 1 is 2.892349
weight of 2 is 2.155556
weight of 3 is 1.000000
not used!
weight of 0 is 0.492343
weight of 1 is 2.892335
weight of 2 is 2.155556
weight of 3 is 0.000000
not used!
weight of 0 is -0.014861
weight of 1 is 2.892314
weight of 2 is 1.977778
weight of 3 is -1.000000
not used!
deny
deny
accept
accept
accept
accept
weight of 0 is -0.536056
weight of 1 is 1.753600
weight of 2 is 1.977778
weight of 3 is -2.000000
not used!
deny
deny
deny
deny
deny
deny
weight of 0 is -1.043261
weight of 1 is 0.614899
weight of 2 is 1.622222
weight of 3 is -3.000000
not used!
deny
deny
weight of 0 is -0.536024
weight of 1 is 0.614955
weight of 2 is 1.977778
weight of 3 is -2.000000
used!
weight of 0 is -0.028787
weight of 1 is 0.615011
weight of 2 is 2.333333
weight of 3 is -1.000000
used!
deny
deny
deny
deny
weight of 0 is 0.478450
weight of 1 is 1.753314
weight of 2 is 2.333333
weight of 3 is 0.000000
used!
weight of 0 is 0.985688
weight of 1 is 2.891616
weight of 2 is 2.333333
weight of 3 is 1.000000
used!
accept
accept
weight of 0 is 1.506909
weight of 1 is 4.029933
weight of 2 is 2.333333
weight of 3 is 2.000000
used!
weight of 0 is 2.028131
weight of 1 is 5.168250
weight of 2 is 2.333333
weight of 3 is 3.000000
used!
accept
accept
weight of 0 is 2.535369
weight of 1 is 5.168271
weight of 2 is 2.511111
weight of 3 is 4.000000
used!
weight of 0 is 3.042607
weight of 1 is 5.168292
weight of 2 is 2.688889
weight of 3 is 5.000000
used!
accept
accept
accept
accept
accept
accept
weight of 0 is 2.521410
weight of 1 is 4.029670
weight of 2 is 2.688889
weight of 3 is 4.000000
not used!
accept
accept
accept
accept
accept
accept
weight of 0 is 2.014201
weight of 1 is 4.029614
weight of 2 is 2.511111
weight of 3 is 3.000000
not used!
accept
accept
accept
accept
accept
accept
weight of 0 is 1.506991
weight of 1 is 4.029557
weight of 2 is 2.155556
weight of 3 is 2.000000
not used!
accept
accept
weight of 0 is 0.999780
weight of 1 is 2.891025
weight of 2 is 1.800000
weight of 3 is 1.000000
not used!
accept
accept
weight of 0 is 0.492569
weight of 1 is 1.752501
weight of 2 is 1.444444
weight of 3 is 0.000000
not used!
accept
accept
weight of 0 is -0.014643
weight of 1 is 1.752487
weight of 2 is 1.444444
weight of 3 is -1.000000
not used!
deny
deny
accept
accept
accept
accept
weight of 0 is -0.521856
weight of 1 is 1.752466
weight of 2 is 1.088889
weight of 3 is -2.000000
not used!
weight of 0 is -1.029069
weight of 1 is 1.752452
weight of 2 is 1.088889
weight of 3 is -3.000000
not used!
weight of 0 is -1.536282
weight of 1 is 1.752431
weight of 2 is 0.911111
weight of 3 is -4.000000
not used!
deny
deny
deny
deny
deny
deny
weight of 0 is -2.043497
[...]
accept
accept
accept
accept
accept
deny
deny
accept
accept
accept
accept
deny
deny
accept
accept
accept
accept
accept
accept
accept
accept
deny
deny
accept
accept
deny
deny
deny
deny
accept
accept
accept
accept
accept
accept
deny
deny
accept
accept
weight of 0 is 2.780580
weight of 1 is 4.890570
weight of 2 is -42.955556
weight of 3 is 17.000000
not used!
deny
deny
accept
accept
accept
accept
weight of 0 is 2.187639
weight of 1 is 4.890513
weight of 2 is -42.955556
weight of 3 is 16.000000
not used!
accept
accept
weight of 0 is 2.172513
weight of 1 is 4.890494
weight of 2 is -42.955556
weight of 3 is 15.000000
not used!
weight of 0 is 1.627057
weight of 1 is 2.539503
weight of 2 is -43.488889
weight of 3 is 14.000000
not used!
accept
accept
weight of 0 is 1.611931
weight of 1 is -3.584739
weight of 2 is -43.488889
weight of 3 is 13.000000
not used!
weight of 0 is 1.550561
weight of 1 is -9.747758
weight of 2 is -43.666667
weight of 3 is 12.000000
not used!
accept
accept
deny
deny
accept
accept
weight of 0 is 1.005101
weight of 1 is -13.641908
weight of 2 is -44.022222
weight of 3 is 11.000000
not used!
weight of 0 is 0.992116
weight of 1 is -17.517764
weight of 2 is -44.377778
weight of 3 is 10.000000
not used!
deny
deny
accept
accept
deny
deny
deny
deny
deny
deny
deny
deny
accept
accept
weight of 0 is 0.977772
weight of 1 is -23.617973
weight of 2 is -44.555556
weight of 3 is 9.000000
not used!
deny
deny
weight of 0 is 0.384808
weight of 1 is -29.781122
weight of 2 is -44.555556
weight of 3 is 8.000000
not used!
deny
deny
weight of 0 is 0.917747
weight of 1 is -24.860717
weight of 2 is -44.555556
weight of 3 is 9.000000
used!
weight of 0 is 1.450686
weight of 1 is -19.940311
weight of 2 is -44.555556
weight of 3 is 10.000000
used!
deny
deny
weight of 0 is 2.044073
weight of 1 is -15.019982
weight of 2 is -43.400000
weight of 3 is 11.000000
used!
weight of 0 is 2.637460
weight of 1 is -10.099654
weight of 2 is -42.244444
weight of 3 is 12.000000
used!
deny
deny
weight of 0 is 3.170399
weight of 1 is -5.179394
weight of 2 is -42.244444
weight of 3 is 13.000000
used!
weight of 0 is 3.703338
weight of 1 is -0.259134
weight of 2 is -42.244444
weight of 3 is 14.000000
used!
weight of 0 is 3.688980
weight of 1 is -6.360515
weight of 2 is -43.311111
weight of 3 is 13.000000
not used!
deny
deny
weight of 0 is 4.282583
weight of 1 is -1.440237
weight of 2 is -43.133333
weight of 3 is 14.000000
used!
weight of 0 is 4.876187
weight of 1 is 3.480042
weight of 2 is -42.955556
weight of 3 is 15.000000
used!
weight of 0 is 4.861061
weight of 1 is 3.418255
weight of 2 is -42.955556
weight of 3 is 14.000000
not used!
accept
accept
accept
accept
weight of 0 is 5.454447
weight of 1 is 8.338522
weight of 2 is -42.244444
weight of 3 is 15.000000
used!
weight of 0 is 6.047835
weight of 1 is 13.258788
weight of 2 is -41.533333
weight of 3 is 16.000000
used!
accept
accept
weight of 0 is 6.032708
weight of 1 is 13.258469
weight of 2 is -41.533333
weight of 3 is 15.000000
not used!
deny
deny
accept
accept
weight of 0 is 6.019727
weight of 1 is 10.970681
weight of 2 is -41.888889
weight of 3 is 14.000000
not used!
deny
deny
accept
accept
accept
accept
accept
accept
deny
deny
accept
accept
accept
accept
weight of 0 is 6.005381
weight of 1 is 10.907194
weight of 2 is -42.244444
weight of 3 is 13.000000
not used!
accept
accept
accept
accept
weight of 0 is 5.992432
weight of 1 is 8.685409
weight of 2 is -42.688889
weight of 3 is 12.000000
not used!
accept
accept
deny
deny
accept
accept
accept
accept
accept
accept
weight of 0 is 5.483443
weight of 1 is 6.738421
weight of 2 is -42.688889
weight of 3 is 11.000000
not used!
accept
accept
accept
accept
accept
accept
accept
accept
accept
accept
accept
accept
accept
accept
accept
accept
accept
accept
accept
accept
accept
accept
accept
accept
accept
accept
accept
accept
weight of 0 is 5.470722
weight of 1 is 6.652995
weight of 2 is -42.688889
weight of 3 is 10.000000
not used!
accept
accept
accept
accept
deny
deny
deny
deny
weight of 0 is 5.455596
weight of 1 is 6.330558
weight of 2 is -42.688889
weight of 3 is 9.000000
not used!
accept
accept
accept
accept
deny
deny
accept
accept
accept
accept
accept
accept
accept
accept
accept
accept
deny
deny
deny
deny
weight of 0 is 4.922657
weight of 1 is 5.040680
weight of 2 is -42.688889
weight of 3 is 8.000000
not used!
deny
deny
accept
accept
accept
accept
deny
deny
deny
deny
accept
accept
weight of 0 is 4.377199
weight of 1 is 5.039898
weight of 2 is -42.688889
weight of 3 is 7.000000
not used!
accept
accept
info: Increasing stack size by one page.
info: Increasing stack size by one page.
info: Increasing stack size by one page.
accept
accept
deny
deny
accept
accept
deny
deny
accept
accept
deny
deny
deny
deny
deny
deny
deny
deny
deny
deny
weight of 0 is 4.924137
weight of 1 is 5.040260
weight of 2 is -41.800000
weight of 3 is 8.000000
used!
weight of 0 is 5.471076
weight of 1 is 5.040621
weight of 2 is -40.911111
weight of 3 is 9.000000
used!
accept
accept
deny
deny
weight of 0 is 4.938137
weight of 1 is 0.117386
weight of 2 is -40.911111
weight of 3 is 8.000000
not used!
weight of 0 is 4.344751
weight of 1 is -4.805858
weight of 2 is -40.911111
weight of 3 is 7.000000
not used!
deny
deny
deny
deny
accept
accept
deny
deny
accept
accept
weight of 0 is 3.811812
weight of 1 is -5.832517
weight of 2 is -40.911111
weight of 3 is 6.000000
not used!
deny
deny
weight of 0 is 3.278873
weight of 1 is -5.832555
weight of 2 is -40.911111
weight of 3 is 5.000000
not used!
accept
accept
deny
deny
deny
deny
deny
deny
weight of 0 is 3.812201
weight of 1 is -3.572527
weight of 2 is -40.022222
weight of 3 is 6.000000
used!
weight of 0 is 4.345529
weight of 1 is -1.312500
weight of 2 is -39.133333
weight of 3 is 7.000000
used!
weight of 0 is 3.812590
weight of 1 is -2.478727
weight of 2 is -39.133333
weight of 3 is 6.000000
not used!
deny
deny
deny
deny
weight of 0 is 3.279651
weight of 1 is -2.478990
weight of 2 is -39.133333
weight of 3 is 5.000000
not used!
accept
accept
accept
accept
accept
accept
weight of 0 is 2.746712
weight of 1 is -2.617772
weight of 2 is -39.133333
weight of 3 is 4.000000
not used!
accept
accept
weight of 0 is 2.732381
weight of 1 is -4.831053
weight of 2 is -39.644444
weight of 3 is 3.000000
not used!
weight of 0 is 2.199442
weight of 1 is -6.008539
weight of 2 is -39.644444
weight of 3 is 2.000000
not used!
accept
accept
weight of 0 is 1.666503
weight of 1 is -6.008595
weight of 2 is -39.644444
weight of 3 is 1.000000
not used!
weight of 0 is 1.133564
weight of 1 is -6.008670
weight of 2 is -39.644444
weight of 3 is 0.000000
not used!
weight of 0 is 0.600626
weight of 1 is -6.008689
weight of 2 is -39.644444
weight of 3 is -1.000000
not used!
deny
deny
deny
deny
weight of 0 is 0.067687
weight of 1 is -6.008745
weight of 2 is -39.644444
weight of 3 is -2.000000
not used!
deny
deny
deny
deny
weight of 0 is -0.465252
weight of 1 is -6.008877
weight of 2 is -39.644444
weight of 3 is -3.000000
not used!
deny
deny
deny
deny
deny
deny
weight of 0 is 0.067686
weight of 1 is -4.984700
weight of 2 is -39.644444
weight of 3 is -2.000000
used!
weight of 0 is 0.600625
weight of 1 is -3.960523
weight of 2 is -39.644444
weight of 3 is -1.000000
used!
deny
deny
weight of 0 is 1.133564
weight of 1 is -3.960504
weight of 2 is -39.644444
weight of 3 is 0.000000
used!
weight of 0 is 1.666503
weight of 1 is -3.960486
weight of 2 is -39.644444
weight of 3 is 1.000000
used!
weight of 0 is 1.133564
weight of 1 is -3.960993
weight of 2 is -39.644444
weight of 3 is 0.000000
not used!
accept
accept
accept
accept
weight of 0 is 1.666503
weight of 1 is -3.960974
weight of 2 is -39.644444
weight of 3 is 1.000000
used!
weight of 0 is 2.199442
weight of 1 is -3.960955
weight of 2 is -39.644444
weight of 3 is 2.000000
used!
weight of 0 is 1.666503
weight of 1 is -3.961293
weight of 2 is -39.644444
weight of 3 is 1.000000
not used!
deny
deny
weight of 0 is 1.133564
weight of 1 is -3.961312
weight of 2 is -39.644444
weight of 3 is 0.000000
not used!
weight of 0 is 0.600626
weight of 1 is -3.961406
weight of 2 is -39.644444
weight of 3 is -1.000000
not used!
deny
deny
weight of 0 is 1.146146
weight of 1 is -2.937295
weight of 2 is -38.400000
weight of 3 is 0.000000
used!
weight of 0 is 1.691667
weight of 1 is -1.913184
weight of 2 is -37.155556
weight of 3 is 1.000000
used!
weight of 0 is 1.676540
weight of 1 is -3.225194
weight of 2 is -37.155556
weight of 3 is 0.000000
not used!
deny
deny
weight of 0 is 1.661414
weight of 1 is -3.289296
weight of 2 is -37.155556
weight of 3 is -1.000000
not used!
deny
deny
weight of 0 is 1.646288
weight of 1 is -3.293035
weight of 2 is -37.155556
weight of 3 is -2.000000
not used!
deny
deny
weight of 0 is 1.631162
weight of 1 is -3.296x264 [error]: ratecontrol_init: can't open stats file
416
weight of 2 is -37.155556
weight of 3 is -3.000000
not used!
deny
deny
deny
deny
deny
deny
deny
deny
deny
deny
deny
deny
deny
deny
weight of 0 is 1.084842
weight of 1 is -4.372589
weight of 2 is -37.155556
weight of 3 is -4.000000
not used!
deny
deny
deny
deny
deny
deny
deny
deny
deny
deny
deny
deny
deny
deny
weight of 0 is 0.564636
weight of 1 is -5.415412
weight of 2 is -37.333333
weight of 3 is -5.000000
not used!
deny
deny
deny
deny
deny
deny
deny
deny
deny
deny
deny
deny
weight of 0 is 1.111576
weight of 1 is -3.239557
weight of 2 is -36.977778
weight of 3 is -4.000000
used!
weight of 0 is 1.658515
weight of 1 is -1.063701
weight of 2 is -36.622222
weight of 3 is -3.000000
used!
deny
deny
weight of 0 is 2.191454
weight of 1 is -0.008755
weight of 2 is -36.622222
weight of 3 is -2.000000
used!
weight of 0 is 2.724393
weight of 1 is 1.046191
weight of 2 is -36.622222
weight of 3 is -1.000000
used!
accept
accept
weight of 0 is 3.271257
weight of 1 is 1.046628
weight of 2 is -35.911111
weight of 3 is 0.000000
used!
weight of 0 is 3.818122
weight of 1 is 1.047064
weight of 2 is -35.200000
weight of 3 is 1.000000
used!
accept
accept
weight of 0 is 3.285183
weight of 1 is 0.000040
weight of 2 is -35.200000
weight of 3 is 0.000000
not used!
weight of 0 is 2.752244
weight of 1 is -0.092826
weight of 2 is -35.200000
weight of 3 is -1.000000
not used!
weight of 0 is 2.150421
weight of 1 is -5.706319
weight of 2 is -35.555556
weight of 3 is -2.000000
not used!
weight of 0 is 1.603558
weight of 1 is -10.181114
weight of 2 is -35.733333
weight of 3 is -3.000000
not used!
weight of 0 is 1.085528
weight of 1 is -10.181118
weight of 2 is -35.733333
weight of 3 is -4.000000
not used!
deny
deny
deny
deny
weight of 0 is 0.552589
weight of 1 is -11.320393
weight of 2 is -35.733333
weight of 3 is -5.000000
not used!
deny
deny
weight of 0 is 0.019650
weight of 1 is -12.454335
weight of 2 is -35.733333
weight of 3 is -6.000000
not used!
weight of 0 is -0.513289
weight of 1 is -12.454522
weight of 2 is -35.733333
weight of 3 is -7.000000
not used!
weight of 0 is -1.046228
weight of 1 is -12.454541
weight of 2 is -35.733333
weight of 3 is -8.000000
not used!
deny
deny
deny
deny
deny
deny
weight of 0 is -1.579167
weight of 1 is -12.454654
weight of 2 is -35.733333
weight of 3 is -9.000000
not used!
deny
deny
deny
deny
deny
deny
weight of 0 is -2.112105
weight of 1 is -12.457153
weight of 2 is -35.733333
weight of 3 is -10.000000
not used!
deny
deny
deny
deny
deny
deny
deny
deny
deny
deny
deny
deny
deny
deny
deny
deny
deny
deny
deny
deny
deny
deny
weight of 0 is -2.645044
weight of 1 is -12.457190
weight of 2 is -35.733333
weight of 3 is -11.000000
not used!
deny
deny
weight of 0 is -2.149868
weight of 1 is -11.487540
weight of 2 is -35.377778
weight of 3 is -10.000000
used!
weight of 0 is -1.654692
weight of 1 is -10.517890
weight of 2 is -35.022222
weight of 3 is -9.000000
used!
deny
deny
deny
deny
deny
deny
deny
deny
deny
deny
deny
deny
deny
deny
weight of 0 is -1.640845
weight of 1 is -8.369038
weight of 2 is -34.488889
weight of 3 is -8.000000
used!
weight of 0 is -1.626998
weight of 1 is -6.220186
weight of 2 is -33.955556
weight of 3 is -7.000000
used!
deny
deny
deny
deny
weight of 0 is -1.611872
weight of 1 is -6.219116
weight of 2 is -33.955556
weight of 3 is -6.000000
used!
weight of 0 is -1.596745
weight of 1 is -6.218045
weight of 2 is -33.955556
weight of 3 is -5.000000
used!
deny
deny
deny
deny
deny
deny
deny
deny
deny
deny
deny
deny
weight of 0 is -1.101820
weight of 1 is -6.162665
weight of 2 is -32.888889
weight of 3 is -4.000000
used!
weight of 0 is -0.606894
weight of 1 is -6.107284
weight of 2 is -31.822222
weight of 3 is -3.000000
used!
deny
deny
weight of 0 is -0.111968
weight of 1 is -6.107280
weight of 2 is -31.822222
weight of 3 is -2.000000
used!
weight of 0 is 0.382958
weight of 1 is -6.107275
weight of 2 is -31.822222
weight of 3 is -1.000000
used!
deny
deny
weight of 0 is 0.877884
weight of 1 is -6.107256
weight of 2 is -31.822222
weight of 3 is 0.000000
used!
weight of 0 is 1.372810
weight of 1 is -6.107237
wex264 [error]: x264_encoder_open failed
ight of 2 is -31.822222
weight of 3 is 1.000000
used!
accept
accept
weight of 0 is 1.867737
weight of 1 is -6.107219
weight of 2 is -31.822222
weight of 3 is 2.000000
used!
weight of 0 is 2.362663
weight of 1 is -6.107200
weight of 2 is -31.822222
weight of 3 is 3.000000
used!
deny
deny
deny
deny
deny
deny
accept
accept
accept
accept
deny
deny
deny
deny
deny
deny
deny
deny
deny
deny
deny
deny
weight of 0 is 1.816763
weight of 1 is -7.162181
weight of 2 is -31.822222
weight of 3 is 2.000000
not used!
weight of 0 is 1.269905
weight of 1 is -7.162707
weight of 2 is -31.822222
weight of 3 is 1.000000
not used!
deny
deny
deny
deny
accept
accept
deny
deny
accept
accept
accept
accept
deny
deny
accept
accept
accept
accept
accept
accept
deny
deny
weight of 0 is 1.285031
weight of 1 is -6.913491
weight of 2 is -31.822222
weight of 3 is 2.000000
used!
weight of 0 is 1.300157
weight of 1 is -6.664275
weight of 2 is -31.822222
weight of 3 is 3.000000
used!
accept
accept
deny
deny
deny
deny
deny
deny
deny
deny
accept
accept
deny
deny
weight of 0 is 1.312435
weight of 1 is -4.433657
weight of 2 is -31.466667
weight of 3 is 4.000000
used!
weight of 0 is 1.324713
weight of 1 is -2.203038
weight of 2 is -31.111111
weight of 3 is 5.000000
used!
accept
accept
deny
deny
weight of 0 is 1.870610
weight of 1 is -1.148229
weight of 2 is -29.866667
weight of 3 is 6.000000
used!
weight of 0 is 2.416508
weight of 1 is -0.093419
weight of 2 is -28.622222
weight of 3 is 7.000000
used!
deny
deny
accept
accept
deny
deny
weight of 0 is 2.937801
weight of 1 is -0.093368
weight of 2 is -27.733333
weight of 3 is 8.000000
used!
weight of 0 is 3.459094
weight of 1 is -0.093316
weight of 2 is -26.844444
weight of 3 is 9.000000
used!
accept
accept
deny
deny
weight of 0 is 4.004799
weight of 1 is 0.945879
weight of 2 is -25.777778
weight of 3 is 10.000000
used!
weight of 0 is 4.550505
weight of 1 is 1.985074
weight of 2 is -24.711111
weight of 3 is 11.000000
used!
accept
accept
accept
accept
accept
accept
accept
accept
accept
accept
deny
deny
accept
accept
accept
accept
accept
accept
accept
accept
accept
accept
deny
deny
accept
accept
accept
accept
accept
accept
deny
deny
deny
deny
accept
accept
deny
deny
accept
accept
accept
accept
accept
accept
accept
accept
accept
accept
deny
deny
accept
accept
accept
accept
accept
accept
accept
accept
accept
accept
deny
deny
accept
accept
deny
deny
accept
accept
accept
accept
accept
accept
accept
accept
accept
accept
deny
deny
deny
deny
weight of 0 is 4.058488
weight of 1 is 1.984879
weight of 2 is -24.777778
weight of 3 is 10.000000
not used!
deny
deny
weight of 0 is 3.563561
weight of 1 is 1.732830
weight of 2 is -24.777778
weight of 3 is 9.000000
not used!
deny
deny
accept
accept
accept
accept
accept
accept
deny
deny
weight of 0 is 3.031715
weight of 1 is 1.709290
weight of 2 is -24.777778
weight of 3 is 8.000000
not used!
weight of 0 is 3.016589
weight of 1 is 1.646489
weight of 2 is -24.777778
weight of 3 is 7.000000
not used!
weight of 0 is 3.001463
weight of 1 is 1.646414
weight of 2 is -24.777778
weight of 3 is 6.000000
not used!
deny
deny
accept
accept
deny
deny
deny
deny
accept
accept
accept
accept
weight of 0 is 2.468524
weight of 1 is 1.646358
weight of 2 is -24.777778
weight of 3 is 5.000000
not used!
accept
accept
weight of 0 is 2.453398
weight of 1 is 1.488958
weight of 2 is -24.777778
weight of 3 is 4.000000
not used!
deny
deny
deny
deny
deny
deny
accept
accept
accept
accept
accept
accept
deny
deny
deny
deny
deny
deny
accept
accept
accept
accept
accept
accept
deny
deny
accept
accept
weight of 0 is 1.920459
weight of 1 is 0.453520
weight of 2 is -24.777778
weight of 3 is 3.000000
not used!
accept
accept
accept
accept
accept
accept
deny
deny
accept
accept
weight of 0 is 1.387520
weight of 1 is 0.451679
weight of 2 is -24.777778
weight of 3 is 2.000000
not used!
weight of 0 is 0.854581
weight of 1 is 0.309910
weight of 2 is -24.777778
weight of 3 is 1.000000
not used!
accept
accept
deny
deny
weight of 0 is 0.321643
weight of 1 is 0.169964
weight of 2 is -24.777778
weight of 3 is 0.000000
not used!
deny
deny
accept
accept
deny
deny
accept
accept
deny
deny
accept
accept
deny
deny
weight of 0 is -0.211296
weight of 1 is -0.925445
weight of 2 is -24.777778
weight of 3 is -1.000000
not used!
weight of 0 is -0.744235
weight of 1 is -0.925539
weight of 2 is -24.777778
weight of 3 is -2.000000
not used!
deny
deny
deny
deny
deny
deny
deny
deny
deny
deny
deny
deny
deny
deny
weight of 0 is -1.277174
weight of 1 is -0.944026
weight of 2 is -24.777778
weight of 3 is -3.000000
not used!
deny
deny
deny
deny
weight of 0 is -0.744235
weight of 1 is 0.082112
weight of 2 is -24.777778
weight of 3 is -2.000000
used!
weight of 0 is -0.211296
weight of 1 is 1.108250
weight of 2 is -24.777778
weight of 3 is -1.000000
used!
deny
deny
weight of 0 is 0.321642
weight of 1 is 1.108269
weight of 2 is -24.777778
weight of 3 is 0.000000
used!
weight of 0 is 0.854581
weight of 1 is 1.108288
weight of 2 is -24.777778
weight of 3 is 1.000000
used!
accept
accept
weight of 0 is 1.387520
weight of 1 is 1.108306
weight of 2 is -24.777778
weight of 3 is 2.000000
used!
weight of 0 is 1.920459
weight of 1 is 1.108325
weight of 2 is -24.777778
weight of 3 is 3.000000
used!
deny
deny
deny
deny
weight of 0 is 2.466123
weight of 1 is 2.144148
weight of 2 is -24.422222
weight of 3 is 4.000000
used!
weight of 0 is 3.011788
weight of 1 is 3.179970
weight of 2 is -24.066667
weight of 3 is 5.000000
used!
deny
deny
accept
accept
deny
deny
weight of 0 is 3.557452
weight of 1 is 3.180010
weight of 2 is -23.533333
weight of 3 is 6.000000
used!
weight of 0 is 4.103117
weight of 1 is 3.180050
weight of 2 is -23.000000
weight of 3 is 7.000000
used!
weight of 0 is 3.570179
weight of 1 is 2.158814
weight of 2 is -23.000000
weight of 3 is 6.000000
not used!
accept
accept
weight of 0 is 3.037240
weight of 1 is 2.158569
weight of 2 is -23.000000
weight of 3 is 5.000000
not used!
weight of 0 is 3.022114
weight of 1 is 0.799930
weight of 2 is -23.000000
weight of 3 is 4.000000
not used!
deny
deny
accept
accept
weight of 0 is 3.010080
weight of 1 is 0.799918
weight of 2 is -23.000000
weight of 3 is 3.000000
not used!
accept
accept
deny
deny
deny
deny
weight of 0 is 2.477141
weight of 1 is -0.442174
weight of 2 is -23.000000
weight of 3 is 2.000000
not used!
accept
accept
deny
deny
deny
deny
accept
accept
deny
deny
weight of 0 is 3.022674
weight of 1 is -0.442128
weight of 2 is -22.288889
weight of 3 is 3.000000
used!
weight of 0 is 3.568208
weight of 1 is -0.442081
weight of 2 is -21.577778
weight of 3 is 4.000000
used!
accept
accept
weight of 0 is 4.113744
weight of 1 is -0.442034
weight of 2 is -20.866667
weight of 3 is 5.000000
used!
weight of 0 is 4.659280
weight of 1 is -0.441987
weight of 2 is -20.155556
weight of 3 is 6.000000
used!
weight of 0 is 4.112754
weight of 1 is -1.547902
weight of 2 is -20.333333
weight of 3 is 5.000000
not used!
Exiting @ tick 21402047000 because exiting with last active thread context
Simulated exit code not 0! Exit code is 255
