
---------- Begin Simulation Statistics ----------
final_tick                                18501002000                       # Number of ticks from beginning of simulation (restored from checkpoints and never reset)
host_inst_rate                                  95520                       # Simulator instruction rate (inst/s)
host_mem_usage                                 957092                       # Number of bytes of host memory used
host_op_rate                                   184275                       # Simulator op (including micro ops) rate (op/s)
host_seconds                                   104.69                       # Real time elapsed on the host
host_tick_rate                              176720584                       # Simulator tick rate (ticks/s)
sim_freq                                 1000000000000                       # Frequency of simulated ticks
sim_insts                                    10000001                       # Number of instructions simulated
sim_ops                                      19291845                       # Number of ops (including micro ops) simulated
sim_seconds                                  0.018501                       # Number of seconds simulated
sim_ticks                                 18501002000                       # Number of ticks simulated
system.clk_domain.clock                          1000                       # Clock period in ticks
system.cpu.apic_clk_domain.clock                16000                       # Clock period in ticks
system.cpu.branchPred.BTBCorrect                    0                       # Number of correct BTB predictions (this stat may not work properly.
system.cpu.branchPred.BTBHitPct              0.000000                       # BTB Hit Percentage
system.cpu.branchPred.BTBHits                       0                       # Number of BTB hits
system.cpu.branchPred.BTBLookups              4689106                       # Number of BTB lookups
system.cpu.branchPred.RASInCorrect             128755                       # Number of incorrect RAS predictions.
system.cpu.branchPred.condIncorrect            658252                       # Number of conditional branches incorrect
system.cpu.branchPred.condPredicted           5363475                       # Number of conditional branches predicted
system.cpu.branchPred.indirectHits            1280937                       # Number of indirect target hits.
system.cpu.branchPred.indirectLookups         4689106                       # Number of indirect predictor lookups.
system.cpu.branchPred.indirectMisses          3408169                       # Number of indirect misses.
system.cpu.branchPred.lookups                 5363475                       # Number of BP lookups
system.cpu.branchPred.usedRAS                  494556                       # Number of times the RAS was used to get a target.
system.cpu.branchPredindirectMispredicted       461802                       # Number of mispredicted indirect branches.
system.cpu.cc_regfile_reads                  12942062                       # number of cc regfile reads
system.cpu.cc_regfile_writes                  8489301                       # number of cc regfile writes
system.cpu.commit.amos                              0                       # Number of atomic instructions committed
system.cpu.commit.branchMispredicts            659668                       # The number of times a branch was mispredicted
system.cpu.commit.branches                    2279172                       # Number of branches committed
system.cpu.commit.bw_lim_events                840440                       # number cycles where commit BW limit reached
system.cpu.commit.commitNonSpecStalls            1325                       # The number of times commit has been forced to stall to communicate backwards
system.cpu.commit.commitSquashedInsts        15824177                       # The number of squashed insts skipped by commit
system.cpu.commit.committedInsts             10000001                       # Number of instructions committed
system.cpu.commit.committedOps               19291845                       # Number of ops (including micro ops) committed
system.cpu.commit.committed_per_cycle::samples     14764641                       # Number of insts commited each cycle
system.cpu.commit.committed_per_cycle::mean     1.306625                       # Number of insts commited each cycle
system.cpu.commit.committed_per_cycle::stdev     2.244536                       # Number of insts commited each cycle
system.cpu.commit.committed_per_cycle::underflows            0      0.00%      0.00% # Number of insts commited each cycle
system.cpu.commit.committed_per_cycle::0      9278473     62.84%     62.84% # Number of insts commited each cycle
system.cpu.commit.committed_per_cycle::1      1499069     10.15%     73.00% # Number of insts commited each cycle
system.cpu.commit.committed_per_cycle::2       655785      4.44%     77.44% # Number of insts commited each cycle
system.cpu.commit.committed_per_cycle::3      1232909      8.35%     85.79% # Number of insts commited each cycle
system.cpu.commit.committed_per_cycle::4       686851      4.65%     90.44% # Number of insts commited each cycle
system.cpu.commit.committed_per_cycle::5       265514      1.80%     92.24% # Number of insts commited each cycle
system.cpu.commit.committed_per_cycle::6       155215      1.05%     93.29% # Number of insts commited each cycle
system.cpu.commit.committed_per_cycle::7       150385      1.02%     94.31% # Number of insts commited each cycle
system.cpu.commit.committed_per_cycle::8       840440      5.69%    100.00% # Number of insts commited each cycle
system.cpu.commit.committed_per_cycle::overflows            0      0.00%    100.00% # Number of insts commited each cycle
system.cpu.commit.committed_per_cycle::min_value            0                       # Number of insts commited each cycle
system.cpu.commit.committed_per_cycle::max_value            8                       # Number of insts commited each cycle
system.cpu.commit.committed_per_cycle::total     14764641                       # Number of insts commited each cycle
system.cpu.commit.fp_insts                      26028                       # Number of committed floating point instructions.
system.cpu.commit.function_calls               199524                       # Number of function calls committed.
system.cpu.commit.int_insts                  19203499                       # Number of committed integer instructions.
system.cpu.commit.loads                       2668046                       # Number of loads committed
system.cpu.commit.membars                         320                       # Number of memory barriers committed
system.cpu.commit.op_class_0::No_OpClass        73387      0.38%      0.38% # Class of committed instruction
system.cpu.commit.op_class_0::IntAlu         15080066     78.17%     78.55% # Class of committed instruction
system.cpu.commit.op_class_0::IntMult           70703      0.37%     78.91% # Class of committed instruction
system.cpu.commit.op_class_0::IntDiv           146573      0.76%     79.67% # Class of committed instruction
system.cpu.commit.op_class_0::FloatAdd            751      0.00%     79.68% # Class of committed instruction
system.cpu.commit.op_class_0::FloatCmp              0      0.00%     79.68% # Class of committed instruction
system.cpu.commit.op_class_0::FloatCvt           1360      0.01%     79.69% # Class of committed instruction
system.cpu.commit.op_class_0::FloatMult             0      0.00%     79.69% # Class of committed instruction
system.cpu.commit.op_class_0::FloatMultAcc            0      0.00%     79.69% # Class of committed instruction
system.cpu.commit.op_class_0::FloatDiv              0      0.00%     79.69% # Class of committed instruction
system.cpu.commit.op_class_0::FloatMisc             0      0.00%     79.69% # Class of committed instruction
system.cpu.commit.op_class_0::FloatSqrt             0      0.00%     79.69% # Class of committed instruction
system.cpu.commit.op_class_0::SimdAdd              26      0.00%     79.69% # Class of committed instruction
system.cpu.commit.op_class_0::SimdAddAcc            0      0.00%     79.69% # Class of committed instruction
system.cpu.commit.op_class_0::SimdAlu            1660      0.01%     79.69% # Class of committed instruction
system.cpu.commit.op_class_0::SimdCmp              24      0.00%     79.69% # Class of committed instruction
system.cpu.commit.op_class_0::SimdCvt            1398      0.01%     79.70% # Class of committed instruction
system.cpu.commit.op_class_0::SimdMisc           3494      0.02%     79.72% # Class of committed instruction
system.cpu.commit.op_class_0::SimdMult              0      0.00%     79.72% # Class of committed instruction
system.cpu.commit.op_class_0::SimdMultAcc            0      0.00%     79.72% # Class of committed instruction
system.cpu.commit.op_class_0::SimdShift            24      0.00%     79.72% # Class of committed instruction
system.cpu.commit.op_class_0::SimdShiftAcc            0      0.00%     79.72% # Class of committed instruction
system.cpu.commit.op_class_0::SimdDiv               0      0.00%     79.72% # Class of committed instruction
system.cpu.commit.op_class_0::SimdSqrt              0      0.00%     79.72% # Class of committed instruction
system.cpu.commit.op_class_0::SimdFloatAdd            5      0.00%     79.72% # Class of committed instruction
system.cpu.commit.op_class_0::SimdFloatAlu            0      0.00%     79.72% # Class of committed instruction
system.cpu.commit.op_class_0::SimdFloatCmp            0      0.00%     79.72% # Class of committed instruction
system.cpu.commit.op_class_0::SimdFloatCvt          182      0.00%     79.72% # Class of committed instruction
system.cpu.commit.op_class_0::SimdFloatDiv            1      0.00%     79.72% # Class of committed instruction
system.cpu.commit.op_class_0::SimdFloatMisc            0      0.00%     79.72% # Class of committed instruction
system.cpu.commit.op_class_0::SimdFloatMult           64      0.00%     79.72% # Class of committed instruction
system.cpu.commit.op_class_0::SimdFloatMultAcc            0      0.00%     79.72% # Class of committed instruction
system.cpu.commit.op_class_0::SimdFloatSqrt            0      0.00%     79.72% # Class of committed instruction
system.cpu.commit.op_class_0::SimdReduceAdd            0      0.00%     79.72% # Class of committed instruction
system.cpu.commit.op_class_0::SimdReduceAlu            0      0.00%     79.72% # Class of committed instruction
system.cpu.commit.op_class_0::SimdReduceCmp            0      0.00%     79.72% # Class of committed instruction
system.cpu.commit.op_class_0::SimdFloatReduceAdd            0      0.00%     79.72% # Class of committed instruction
system.cpu.commit.op_class_0::SimdFloatReduceCmp            0      0.00%     79.72% # Class of committed instruction
system.cpu.commit.op_class_0::SimdAes               0      0.00%     79.72% # Class of committed instruction
system.cpu.commit.op_class_0::SimdAesMix            0      0.00%     79.72% # Class of committed instruction
system.cpu.commit.op_class_0::SimdSha1Hash            0      0.00%     79.72% # Class of committed instruction
system.cpu.commit.op_class_0::SimdSha1Hash2            0      0.00%     79.72% # Class of committed instruction
system.cpu.commit.op_class_0::SimdSha256Hash            0      0.00%     79.72% # Class of committed instruction
system.cpu.commit.op_class_0::SimdSha256Hash2            0      0.00%     79.72% # Class of committed instruction
system.cpu.commit.op_class_0::SimdShaSigma2            0      0.00%     79.72% # Class of committed instruction
system.cpu.commit.op_class_0::SimdShaSigma3            0      0.00%     79.72% # Class of committed instruction
system.cpu.commit.op_class_0::SimdPredAlu            0      0.00%     79.72% # Class of committed instruction
system.cpu.commit.op_class_0::MemRead         2663045     13.80%     93.53% # Class of committed instruction
system.cpu.commit.op_class_0::MemWrite        1233031      6.39%     99.92% # Class of committed instruction
system.cpu.commit.op_class_0::FloatMemRead         5001      0.03%     99.94% # Class of committed instruction
system.cpu.commit.op_class_0::FloatMemWrite        11050      0.06%    100.00% # Class of committed instruction
system.cpu.commit.op_class_0::IprAccess             0      0.00%    100.00% # Class of committed instruction
system.cpu.commit.op_class_0::InstPrefetch            0      0.00%    100.00% # Class of committed instruction
system.cpu.commit.op_class_0::total          19291845                       # Class of committed instruction
system.cpu.commit.refs                        3912127                       # Number of memory references committed
system.cpu.commit.swp_count                         0                       # Number of s/w prefetches committed
system.cpu.commit.vec_insts                         0                       # Number of committed Vector instructions.
system.cpu.committedInsts                    10000001                       # Number of Instructions Simulated
system.cpu.committedOps                      19291845                       # Number of Ops (including micro ops) Simulated
system.cpu.cpi                               1.850100                       # CPI: Cycles Per Instruction
system.cpu.cpi_total                         1.850100                       # CPI: Total CPI of All Threads
system.cpu.dcache.ReadReq_accesses::.cpu.data      3642787                       # number of ReadReq accesses(hits+misses)
system.cpu.dcache.ReadReq_accesses::total      3642787                       # number of ReadReq accesses(hits+misses)
system.cpu.dcache.ReadReq_avg_miss_latency::.cpu.data 52554.381518                       # average ReadReq miss latency
system.cpu.dcache.ReadReq_avg_miss_latency::total 52554.381518                       # average ReadReq miss latency
system.cpu.dcache.ReadReq_avg_mshr_miss_latency::.cpu.data 53451.583710                       # average ReadReq mshr miss latency
system.cpu.dcache.ReadReq_avg_mshr_miss_latency::total 53451.583710                       # average ReadReq mshr miss latency
system.cpu.dcache.ReadReq_hits::.cpu.data      3563100                       # number of ReadReq hits
system.cpu.dcache.ReadReq_hits::total         3563100                       # number of ReadReq hits
system.cpu.dcache.ReadReq_miss_latency::.cpu.data   4187901000                       # number of ReadReq miss cycles
system.cpu.dcache.ReadReq_miss_latency::total   4187901000                       # number of ReadReq miss cycles
system.cpu.dcache.ReadReq_miss_rate::.cpu.data     0.021875                       # miss rate for ReadReq accesses
system.cpu.dcache.ReadReq_miss_rate::total     0.021875                       # miss rate for ReadReq accesses
system.cpu.dcache.ReadReq_misses::.cpu.data        79687                       # number of ReadReq misses
system.cpu.dcache.ReadReq_misses::total         79687                       # number of ReadReq misses
system.cpu.dcache.ReadReq_mshr_hits::.cpu.data        47642                       # number of ReadReq MSHR hits
system.cpu.dcache.ReadReq_mshr_hits::total        47642                       # number of ReadReq MSHR hits
system.cpu.dcache.ReadReq_mshr_miss_latency::.cpu.data   1712856000                       # number of ReadReq MSHR miss cycles
system.cpu.dcache.ReadReq_mshr_miss_latency::total   1712856000                       # number of ReadReq MSHR miss cycles
system.cpu.dcache.ReadReq_mshr_miss_rate::.cpu.data     0.008797                       # mshr miss rate for ReadReq accesses
system.cpu.dcache.ReadReq_mshr_miss_rate::total     0.008797                       # mshr miss rate for ReadReq accesses
system.cpu.dcache.ReadReq_mshr_misses::.cpu.data        32045                       # number of ReadReq MSHR misses
system.cpu.dcache.ReadReq_mshr_misses::total        32045                       # number of ReadReq MSHR misses
system.cpu.dcache.WriteReq_accesses::.cpu.data      1244612                       # number of WriteReq accesses(hits+misses)
system.cpu.dcache.WriteReq_accesses::total      1244612                       # number of WriteReq accesses(hits+misses)
system.cpu.dcache.WriteReq_avg_miss_latency::.cpu.data 65021.083754                       # average WriteReq miss latency
system.cpu.dcache.WriteReq_avg_miss_latency::total 65021.083754                       # average WriteReq miss latency
system.cpu.dcache.WriteReq_avg_mshr_miss_latency::.cpu.data 62948.466179                       # average WriteReq mshr miss latency
system.cpu.dcache.WriteReq_avg_mshr_miss_latency::total 62948.466179                       # average WriteReq mshr miss latency
system.cpu.dcache.WriteReq_hits::.cpu.data      1230953                       # number of WriteReq hits
system.cpu.dcache.WriteReq_hits::total        1230953                       # number of WriteReq hits
system.cpu.dcache.WriteReq_miss_latency::.cpu.data    888122983                       # number of WriteReq miss cycles
system.cpu.dcache.WriteReq_miss_latency::total    888122983                       # number of WriteReq miss cycles
system.cpu.dcache.WriteReq_miss_rate::.cpu.data     0.010975                       # miss rate for WriteReq accesses
system.cpu.dcache.WriteReq_miss_rate::total     0.010975                       # miss rate for WriteReq accesses
system.cpu.dcache.WriteReq_misses::.cpu.data        13659                       # number of WriteReq misses
system.cpu.dcache.WriteReq_misses::total        13659                       # number of WriteReq misses
system.cpu.dcache.WriteReq_mshr_hits::.cpu.data          250                       # number of WriteReq MSHR hits
system.cpu.dcache.WriteReq_mshr_hits::total          250                       # number of WriteReq MSHR hits
system.cpu.dcache.WriteReq_mshr_miss_latency::.cpu.data    844075983                       # number of WriteReq MSHR miss cycles
system.cpu.dcache.WriteReq_mshr_miss_latency::total    844075983                       # number of WriteReq MSHR miss cycles
system.cpu.dcache.WriteReq_mshr_miss_rate::.cpu.data     0.010774                       # mshr miss rate for WriteReq accesses
system.cpu.dcache.WriteReq_mshr_miss_rate::total     0.010774                       # mshr miss rate for WriteReq accesses
system.cpu.dcache.WriteReq_mshr_misses::.cpu.data        13409                       # number of WriteReq MSHR misses
system.cpu.dcache.WriteReq_mshr_misses::total        13409                       # number of WriteReq MSHR misses
system.cpu.dcache.avg_blocked_cycles::no_mshrs    24.403509                       # average number of cycles each access was blocked
system.cpu.dcache.avg_blocked_cycles::no_targets    24.172414                       # average number of cycles each access was blocked
system.cpu.dcache.blocked::no_mshrs               627                       # number of cycles access was blocked
system.cpu.dcache.blocked::no_targets              29                       # number of cycles access was blocked
system.cpu.dcache.blocked_cycles::no_mshrs        15301                       # number of cycles access was blocked
system.cpu.dcache.blocked_cycles::no_targets          701                       # number of cycles access was blocked
system.cpu.dcache.demand_accesses::.cpu.data      4887399                       # number of demand (read+write) accesses
system.cpu.dcache.demand_accesses::total      4887399                       # number of demand (read+write) accesses
system.cpu.dcache.demand_avg_miss_latency::.cpu.data 54378.591295                       # average overall miss latency
system.cpu.dcache.demand_avg_miss_latency::total 54378.591295                       # average overall miss latency
system.cpu.dcache.demand_avg_mshr_miss_latency::.cpu.data 56253.178664                       # average overall mshr miss latency
system.cpu.dcache.demand_avg_mshr_miss_latency::total 56253.178664                       # average overall mshr miss latency
system.cpu.dcache.demand_hits::.cpu.data      4794053                       # number of demand (read+write) hits
system.cpu.dcache.demand_hits::total          4794053                       # number of demand (read+write) hits
system.cpu.dcache.demand_miss_latency::.cpu.data   5076023983                       # number of demand (read+write) miss cycles
system.cpu.dcache.demand_miss_latency::total   5076023983                       # number of demand (read+write) miss cycles
system.cpu.dcache.demand_miss_rate::.cpu.data     0.019099                       # miss rate for demand accesses
system.cpu.dcache.demand_miss_rate::total     0.019099                       # miss rate for demand accesses
system.cpu.dcache.demand_misses::.cpu.data        93346                       # number of demand (read+write) misses
system.cpu.dcache.demand_misses::total          93346                       # number of demand (read+write) misses
system.cpu.dcache.demand_mshr_hits::.cpu.data        47892                       # number of demand (read+write) MSHR hits
system.cpu.dcache.demand_mshr_hits::total        47892                       # number of demand (read+write) MSHR hits
system.cpu.dcache.demand_mshr_miss_latency::.cpu.data   2556931983                       # number of demand (read+write) MSHR miss cycles
system.cpu.dcache.demand_mshr_miss_latency::total   2556931983                       # number of demand (read+write) MSHR miss cycles
system.cpu.dcache.demand_mshr_miss_rate::.cpu.data     0.009300                       # mshr miss rate for demand accesses
system.cpu.dcache.demand_mshr_miss_rate::total     0.009300                       # mshr miss rate for demand accesses
system.cpu.dcache.demand_mshr_misses::.cpu.data        45454                       # number of demand (read+write) MSHR misses
system.cpu.dcache.demand_mshr_misses::total        45454                       # number of demand (read+write) MSHR misses
system.cpu.dcache.overall_accesses::.cpu.data      4887399                       # number of overall (read+write) accesses
system.cpu.dcache.overall_accesses::total      4887399                       # number of overall (read+write) accesses
system.cpu.dcache.overall_avg_miss_latency::.cpu.data 54378.591295                       # average overall miss latency
system.cpu.dcache.overall_avg_miss_latency::total 54378.591295                       # average overall miss latency
system.cpu.dcache.overall_avg_mshr_miss_latency::.cpu.data 56253.178664                       # average overall mshr miss latency
system.cpu.dcache.overall_avg_mshr_miss_latency::total 56253.178664                       # average overall mshr miss latency
system.cpu.dcache.overall_hits::.cpu.data      4794053                       # number of overall hits
system.cpu.dcache.overall_hits::total         4794053                       # number of overall hits
system.cpu.dcache.overall_miss_latency::.cpu.data   5076023983                       # number of overall miss cycles
system.cpu.dcache.overall_miss_latency::total   5076023983                       # number of overall miss cycles
system.cpu.dcache.overall_miss_rate::.cpu.data     0.019099                       # miss rate for overall accesses
system.cpu.dcache.overall_miss_rate::total     0.019099                       # miss rate for overall accesses
system.cpu.dcache.overall_misses::.cpu.data        93346                       # number of overall misses
system.cpu.dcache.overall_misses::total         93346                       # number of overall misses
system.cpu.dcache.overall_mshr_hits::.cpu.data        47892                       # number of overall MSHR hits
system.cpu.dcache.overall_mshr_hits::total        47892                       # number of overall MSHR hits
system.cpu.dcache.overall_mshr_miss_latency::.cpu.data   2556931983                       # number of overall MSHR miss cycles
system.cpu.dcache.overall_mshr_miss_latency::total   2556931983                       # number of overall MSHR miss cycles
system.cpu.dcache.overall_mshr_miss_rate::.cpu.data     0.009300                       # mshr miss rate for overall accesses
system.cpu.dcache.overall_mshr_miss_rate::total     0.009300                       # mshr miss rate for overall accesses
system.cpu.dcache.overall_mshr_misses::.cpu.data        45454                       # number of overall MSHR misses
system.cpu.dcache.overall_mshr_misses::total        45454                       # number of overall MSHR misses
system.cpu.dcache.pwrStateResidencyTicks::UNDEFINED  18501002000                       # Cumulative time (in ticks) in various power states
system.cpu.dcache.replacements                  44025                       # number of replacements
system.cpu.dcache.tags.age_task_id_blocks_1024::0           59                       # Occupied blocks per task id
system.cpu.dcache.tags.age_task_id_blocks_1024::1          233                       # Occupied blocks per task id
system.cpu.dcache.tags.age_task_id_blocks_1024::2          650                       # Occupied blocks per task id
system.cpu.dcache.tags.age_task_id_blocks_1024::3           82                       # Occupied blocks per task id
system.cpu.dcache.tags.avg_refs            107.430087                       # Average number of references to valid blocks.
system.cpu.dcache.tags.data_accesses          9819847                       # Number of data accesses
system.cpu.dcache.tags.occ_blocks::.cpu.data  1019.589704                       # Average occupied blocks per requestor
system.cpu.dcache.tags.occ_percent::.cpu.data     0.995693                       # Average percentage of cache occupancy
system.cpu.dcache.tags.occ_percent::total     0.995693                       # Average percentage of cache occupancy
system.cpu.dcache.tags.occ_task_id_blocks::1024         1024                       # Occupied blocks per task id
system.cpu.dcache.tags.occ_task_id_percent::1024            1                       # Percentage of cache occupancy per task id
system.cpu.dcache.tags.pwrStateResidencyTicks::UNDEFINED  18501002000                       # Cumulative time (in ticks) in various power states
system.cpu.dcache.tags.sampled_refs             45049                       # Sample count of references to valid blocks.
system.cpu.dcache.tags.tag_accesses           9819847                       # Number of tag accesses
system.cpu.dcache.tags.tagsinuse          1019.589704                       # Cycle average of tags in use
system.cpu.dcache.tags.total_refs             4839618                       # Total number of references to valid blocks.
system.cpu.dcache.tags.warmup_cycle            240000                       # Cycle when the warmup percentage was hit.
system.cpu.dcache.writebacks::.writebacks        21441                       # number of writebacks
system.cpu.dcache.writebacks::total             21441                       # number of writebacks
system.cpu.decode.BlockedCycles               2722887                       # Number of cycles decode is blocked
system.cpu.decode.DecodedInsts               41810705                       # Number of instructions handled by decode
system.cpu.decode.IdleCycles                  7771455                       # Number of cycles decode is idle
system.cpu.decode.RunCycles                   5603455                       # Number of cycles decode is running
system.cpu.decode.SquashCycles                 660117                       # Number of cycles decode is squashing
system.cpu.decode.UnblockCycles                518545                       # Number of cycles decode is unblocking
system.cpu.dtb.rdAccesses                     3937740                       # TLB accesses on read requests
system.cpu.dtb.rdMisses                         77409                       # TLB misses on read requests
system.cpu.dtb.walker.pwrStateResidencyTicks::UNDEFINED  18501002000                       # Cumulative time (in ticks) in various power states
system.cpu.dtb.wrAccesses                     1645371                       # TLB accesses on write requests
system.cpu.dtb.wrMisses                          8614                       # TLB misses on write requests
system.cpu.dtb_walker_cache.avg_blocked_cycles::no_mshrs          nan                       # average number of cycles each access was blocked
system.cpu.dtb_walker_cache.avg_blocked_cycles::no_targets          nan                       # average number of cycles each access was blocked
system.cpu.dtb_walker_cache.blocked::no_mshrs            0                       # number of cycles access was blocked
system.cpu.dtb_walker_cache.blocked::no_targets            0                       # number of cycles access was blocked
system.cpu.dtb_walker_cache.blocked_cycles::no_mshrs            0                       # number of cycles access was blocked
system.cpu.dtb_walker_cache.blocked_cycles::no_targets            0                       # number of cycles access was blocked
system.cpu.dtb_walker_cache.pwrStateResidencyTicks::UNDEFINED  18501002000                       # Cumulative time (in ticks) in various power states
system.cpu.dtb_walker_cache.replacements            0                       # number of replacements
system.cpu.dtb_walker_cache.tags.avg_refs          nan                       # Average number of references to valid blocks.
system.cpu.dtb_walker_cache.tags.data_accesses            0                       # Number of data accesses
system.cpu.dtb_walker_cache.tags.pwrStateResidencyTicks::UNDEFINED  18501002000                       # Cumulative time (in ticks) in various power states
system.cpu.dtb_walker_cache.tags.sampled_refs            0                       # Sample count of references to valid blocks.
system.cpu.dtb_walker_cache.tags.tag_accesses            0                       # Number of tag accesses
system.cpu.dtb_walker_cache.tags.tagsinuse            0                       # Cycle average of tags in use
system.cpu.dtb_walker_cache.tags.total_refs            0                       # Total number of references to valid blocks.
system.cpu.dtb_walker_cache.tags.warmup_cycle            0                       # Cycle when the warmup percentage was hit.
system.cpu.fetch.Branches                     5363475                       # Number of branches that fetch encountered
system.cpu.fetch.CacheLines                   3079186                       # Number of cache lines fetched
system.cpu.fetch.Cycles                       7990805                       # Number of cycles fetch has run and was not squashing or blocked
system.cpu.fetch.IcacheSquashes                321686                       # Number of outstanding Icache misses that were squashed
system.cpu.fetch.IcacheWaitRetryStallCycles           69                       # Number of stall cycles due to full MSHR
system.cpu.fetch.Insts                       22882518                       # Number of instructions fetch has processed
system.cpu.fetch.MiscStallCycles                 1621                       # Number of cycles fetch has spent waiting on interrupts, or bad addresses, or out of MSHRs
system.cpu.fetch.PendingQuiesceStallCycles          155                       # Number of stall cycles due to pending quiesce instructions
system.cpu.fetch.PendingTrapStallCycles         12823                       # Number of stall cycles due to pending traps
system.cpu.fetch.SquashCycles                 1320234                       # Number of cycles fetch has spent squashing
system.cpu.fetch.TlbCycles                         11                       # Number of cycles fetch has spent waiting for tlb
system.cpu.fetch.branchRate                  0.289902                       # Number of branch fetches per cycle
system.cpu.fetch.icacheStallCycles            8610858                       # Number of cycles fetch is stalled on an Icache miss
system.cpu.fetch.predictedBranches            1775493                       # Number of branches that fetch has predicted taken
system.cpu.fetch.rate                        1.236826                       # Number of inst fetches per cycle
system.cpu.fetch.rateDist::samples           17276459                       # Number of instructions fetched each cycle (Total)
system.cpu.fetch.rateDist::mean              2.597887                       # Number of instructions fetched each cycle (Total)
system.cpu.fetch.rateDist::stdev             3.487423                       # Number of instructions fetched each cycle (Total)
system.cpu.fetch.rateDist::underflows               0      0.00%      0.00% # Number of instructions fetched each cycle (Total)
system.cpu.fetch.rateDist::0                 10342501     59.86%     59.86% # Number of instructions fetched each cycle (Total)
system.cpu.fetch.rateDist::1                   388579      2.25%     62.11% # Number of instructions fetched each cycle (Total)
system.cpu.fetch.rateDist::2                   309302      1.79%     63.90% # Number of instructions fetched each cycle (Total)
system.cpu.fetch.rateDist::3                   390009      2.26%     66.16% # Number of instructions fetched each cycle (Total)
system.cpu.fetch.rateDist::4                   417489      2.42%     68.58% # Number of instructions fetched each cycle (Total)
system.cpu.fetch.rateDist::5                   443926      2.57%     71.15% # Number of instructions fetched each cycle (Total)
system.cpu.fetch.rateDist::6                   355947      2.06%     73.21% # Number of instructions fetched each cycle (Total)
system.cpu.fetch.rateDist::7                   349844      2.02%     75.23% # Number of instructions fetched each cycle (Total)
system.cpu.fetch.rateDist::8                  4278862     24.77%    100.00% # Number of instructions fetched each cycle (Total)
system.cpu.fetch.rateDist::overflows                0      0.00%    100.00% # Number of instructions fetched each cycle (Total)
system.cpu.fetch.rateDist::min_value                0                       # Number of instructions fetched each cycle (Total)
system.cpu.fetch.rateDist::max_value                8                       # Number of instructions fetched each cycle (Total)
system.cpu.fetch.rateDist::total             17276459                       # Number of instructions fetched each cycle (Total)
system.cpu.fp_regfile_reads                     38362                       # number of floating regfile reads
system.cpu.fp_regfile_writes                    16789                       # number of floating regfile writes
system.cpu.icache.ReadReq_accesses::.cpu.inst      3079185                       # number of ReadReq accesses(hits+misses)
system.cpu.icache.ReadReq_accesses::total      3079185                       # number of ReadReq accesses(hits+misses)
system.cpu.icache.ReadReq_avg_miss_latency::.cpu.inst 26068.289952                       # average ReadReq miss latency
system.cpu.icache.ReadReq_avg_miss_latency::total 26068.289952                       # average ReadReq miss latency
system.cpu.icache.ReadReq_avg_mshr_miss_latency::.cpu.inst 25465.995498                       # average ReadReq mshr miss latency
system.cpu.icache.ReadReq_avg_mshr_miss_latency::total 25465.995498                       # average ReadReq mshr miss latency
system.cpu.icache.ReadReq_hits::.cpu.inst      2636177                       # number of ReadReq hits
system.cpu.icache.ReadReq_hits::total         2636177                       # number of ReadReq hits
system.cpu.icache.ReadReq_miss_latency::.cpu.inst  11548460995                       # number of ReadReq miss cycles
system.cpu.icache.ReadReq_miss_latency::total  11548460995                       # number of ReadReq miss cycles
system.cpu.icache.ReadReq_miss_rate::.cpu.inst     0.143872                       # miss rate for ReadReq accesses
system.cpu.icache.ReadReq_miss_rate::total     0.143872                       # miss rate for ReadReq accesses
system.cpu.icache.ReadReq_misses::.cpu.inst       443008                       # number of ReadReq misses
system.cpu.icache.ReadReq_misses::total        443008                       # number of ReadReq misses
system.cpu.icache.ReadReq_mshr_hits::.cpu.inst        49163                       # number of ReadReq MSHR hits
system.cpu.icache.ReadReq_mshr_hits::total        49163                       # number of ReadReq MSHR hits
system.cpu.icache.ReadReq_mshr_miss_latency::.cpu.inst  10029654997                       # number of ReadReq MSHR miss cycles
system.cpu.icache.ReadReq_mshr_miss_latency::total  10029654997                       # number of ReadReq MSHR miss cycles
system.cpu.icache.ReadReq_mshr_miss_rate::.cpu.inst     0.127906                       # mshr miss rate for ReadReq accesses
system.cpu.icache.ReadReq_mshr_miss_rate::total     0.127906                       # mshr miss rate for ReadReq accesses
system.cpu.icache.ReadReq_mshr_misses::.cpu.inst       393845                       # number of ReadReq MSHR misses
system.cpu.icache.ReadReq_mshr_misses::total       393845                       # number of ReadReq MSHR misses
system.cpu.icache.avg_blocked_cycles::no_mshrs     5.934932                       # average number of cycles each access was blocked
system.cpu.icache.avg_blocked_cycles::no_targets          nan                       # average number of cycles each access was blocked
system.cpu.icache.blocked::no_mshrs               292                       # number of cycles access was blocked
system.cpu.icache.blocked::no_targets               0                       # number of cycles access was blocked
system.cpu.icache.blocked_cycles::no_mshrs         1733                       # number of cycles access was blocked
system.cpu.icache.blocked_cycles::no_targets            0                       # number of cycles access was blocked
system.cpu.icache.demand_accesses::.cpu.inst      3079185                       # number of demand (read+write) accesses
system.cpu.icache.demand_accesses::total      3079185                       # number of demand (read+write) accesses
system.cpu.icache.demand_avg_miss_latency::.cpu.inst 26068.289952                       # average overall miss latency
system.cpu.icache.demand_avg_miss_latency::total 26068.289952                       # average overall miss latency
system.cpu.icache.demand_avg_mshr_miss_latency::.cpu.inst 25465.995498                       # average overall mshr miss latency
system.cpu.icache.demand_avg_mshr_miss_latency::total 25465.995498                       # average overall mshr miss latency
system.cpu.icache.demand_hits::.cpu.inst      2636177                       # number of demand (read+write) hits
system.cpu.icache.demand_hits::total          2636177                       # number of demand (read+write) hits
system.cpu.icache.demand_miss_latency::.cpu.inst  11548460995                       # number of demand (read+write) miss cycles
system.cpu.icache.demand_miss_latency::total  11548460995                       # number of demand (read+write) miss cycles
system.cpu.icache.demand_miss_rate::.cpu.inst     0.143872                       # miss rate for demand accesses
system.cpu.icache.demand_miss_rate::total     0.143872                       # miss rate for demand accesses
system.cpu.icache.demand_misses::.cpu.inst       443008                       # number of demand (read+write) misses
system.cpu.icache.demand_misses::total         443008                       # number of demand (read+write) misses
system.cpu.icache.demand_mshr_hits::.cpu.inst        49163                       # number of demand (read+write) MSHR hits
system.cpu.icache.demand_mshr_hits::total        49163                       # number of demand (read+write) MSHR hits
system.cpu.icache.demand_mshr_miss_latency::.cpu.inst  10029654997                       # number of demand (read+write) MSHR miss cycles
system.cpu.icache.demand_mshr_miss_latency::total  10029654997                       # number of demand (read+write) MSHR miss cycles
system.cpu.icache.demand_mshr_miss_rate::.cpu.inst     0.127906                       # mshr miss rate for demand accesses
system.cpu.icache.demand_mshr_miss_rate::total     0.127906                       # mshr miss rate for demand accesses
system.cpu.icache.demand_mshr_misses::.cpu.inst       393845                       # number of demand (read+write) MSHR misses
system.cpu.icache.demand_mshr_misses::total       393845                       # number of demand (read+write) MSHR misses
system.cpu.icache.overall_accesses::.cpu.inst      3079185                       # number of overall (read+write) accesses
system.cpu.icache.overall_accesses::total      3079185                       # number of overall (read+write) accesses
system.cpu.icache.overall_avg_miss_latency::.cpu.inst 26068.289952                       # average overall miss latency
system.cpu.icache.overall_avg_miss_latency::total 26068.289952                       # average overall miss latency
system.cpu.icache.overall_avg_mshr_miss_latency::.cpu.inst 25465.995498                       # average overall mshr miss latency
system.cpu.icache.overall_avg_mshr_miss_latency::total 25465.995498                       # average overall mshr miss latency
system.cpu.icache.overall_hits::.cpu.inst      2636177                       # number of overall hits
system.cpu.icache.overall_hits::total         2636177                       # number of overall hits
system.cpu.icache.overall_miss_latency::.cpu.inst  11548460995                       # number of overall miss cycles
system.cpu.icache.overall_miss_latency::total  11548460995                       # number of overall miss cycles
system.cpu.icache.overall_miss_rate::.cpu.inst     0.143872                       # miss rate for overall accesses
system.cpu.icache.overall_miss_rate::total     0.143872                       # miss rate for overall accesses
system.cpu.icache.overall_misses::.cpu.inst       443008                       # number of overall misses
system.cpu.icache.overall_misses::total        443008                       # number of overall misses
system.cpu.icache.overall_mshr_hits::.cpu.inst        49163                       # number of overall MSHR hits
system.cpu.icache.overall_mshr_hits::total        49163                       # number of overall MSHR hits
system.cpu.icache.overall_mshr_miss_latency::.cpu.inst  10029654997                       # number of overall MSHR miss cycles
system.cpu.icache.overall_mshr_miss_latency::total  10029654997                       # number of overall MSHR miss cycles
system.cpu.icache.overall_mshr_miss_rate::.cpu.inst     0.127906                       # mshr miss rate for overall accesses
system.cpu.icache.overall_mshr_miss_rate::total     0.127906                       # mshr miss rate for overall accesses
system.cpu.icache.overall_mshr_misses::.cpu.inst       393845                       # number of overall MSHR misses
system.cpu.icache.overall_mshr_misses::total       393845                       # number of overall MSHR misses
system.cpu.icache.pwrStateResidencyTicks::UNDEFINED  18501002000                       # Cumulative time (in ticks) in various power states
system.cpu.icache.replacements                 393439                       # number of replacements
system.cpu.icache.tags.age_task_id_blocks_1024::0           93                       # Occupied blocks per task id
system.cpu.icache.tags.age_task_id_blocks_1024::1          160                       # Occupied blocks per task id
system.cpu.icache.tags.age_task_id_blocks_1024::2            2                       # Occupied blocks per task id
system.cpu.icache.tags.avg_refs              7.693438                       # Average number of references to valid blocks.
system.cpu.icache.tags.data_accesses          6552215                       # Number of data accesses
system.cpu.icache.tags.occ_blocks::.cpu.inst   255.705755                       # Average occupied blocks per requestor
system.cpu.icache.tags.occ_percent::.cpu.inst     0.998851                       # Average percentage of cache occupancy
system.cpu.icache.tags.occ_percent::total     0.998851                       # Average percentage of cache occupancy
system.cpu.icache.tags.occ_task_id_blocks::1024          255                       # Occupied blocks per task id
system.cpu.icache.tags.occ_task_id_percent::1024     0.996094                       # Percentage of cache occupancy per task id
system.cpu.icache.tags.pwrStateResidencyTicks::UNDEFINED  18501002000                       # Cumulative time (in ticks) in various power states
system.cpu.icache.tags.sampled_refs            393845                       # Sample count of references to valid blocks.
system.cpu.icache.tags.tag_accesses           6552215                       # Number of tag accesses
system.cpu.icache.tags.tagsinuse           255.705755                       # Cycle average of tags in use
system.cpu.icache.tags.total_refs             3030022                       # Total number of references to valid blocks.
system.cpu.icache.tags.warmup_cycle            108000                       # Cycle when the warmup percentage was hit.
system.cpu.icache.writebacks::.writebacks       393439                       # number of writebacks
system.cpu.icache.writebacks::total            393439                       # number of writebacks
system.cpu.idleCycles                         1224544                       # Total number of cycles that the CPU has spent unscheduled due to idling
system.cpu.iew.branchMispredicts               837815                       # Number of branch mispredicts detected at execute
system.cpu.iew.exec_branches                  2932351                       # Number of branches executed
system.cpu.iew.exec_nop                             0                       # number of nop insts executed
system.cpu.iew.exec_rate                     1.517848                       # Inst execution rate
system.cpu.iew.exec_refs                      5580613                       # number of memory reference insts executed
system.cpu.iew.exec_stores                    1644485                       # Number of stores executed
system.cpu.iew.exec_swp                             0                       # number of swp insts executed
system.cpu.iew.iewBlockCycles                 2051570                       # Number of cycles IEW is blocking
system.cpu.iew.iewDispLoadInsts               5208615                       # Number of dispatched load instructions
system.cpu.iew.iewDispNonSpecInsts              12965                       # Number of dispatched non-speculative instructions
system.cpu.iew.iewDispSquashedInsts             41752                       # Number of squashed instructions skipped by dispatch
system.cpu.iew.iewDispStoreInsts              2171524                       # Number of dispatched store instructions
system.cpu.iew.iewDispatchedInsts            35115270                       # Number of instructions dispatched to IQ
system.cpu.iew.iewExecLoadInsts               3936128                       # Number of load instructions executed
system.cpu.iew.iewExecSquashedInsts           1333447                       # Number of squashed instructions skipped in execute
system.cpu.iew.iewExecutedInsts              28081718                       # Number of executed instructions
system.cpu.iew.iewIQFullEvents                   3918                       # Number of times the IQ has become full, causing a stall
system.cpu.iew.iewIdleCycles                        0                       # Number of cycles IEW is idle
system.cpu.iew.iewLSQFullEvents                 42656                       # Number of times the LSQ has become full, causing a stall
system.cpu.iew.iewSquashCycles                 660117                       # Number of cycles IEW is squashing
system.cpu.iew.iewUnblockCycles                 48385                       # Number of cycles IEW is unblocking
system.cpu.iew.lsq.thread0.blockedLoads             0                       # Number of blocked loads due to partial load-store forwarding
system.cpu.iew.lsq.thread0.cacheBlocked           545                       # Number of times an access to memory failed due to the cache being blocked
system.cpu.iew.lsq.thread0.forwLoads           221891                       # Number of loads that had data forwarded from stores
system.cpu.iew.lsq.thread0.ignoredResponses         5153                       # Number of memory responses ignored because the instruction is squashed
system.cpu.iew.lsq.thread0.invAddrLoads             0                       # Number of loads ignored due to an invalid address
system.cpu.iew.lsq.thread0.invAddrSwpfs             0                       # Number of software prefetches ignored due to an invalid address
system.cpu.iew.lsq.thread0.memOrderViolation          796                       # Number of memory ordering violations
system.cpu.iew.lsq.thread0.rescheduledLoads          612                       # Number of loads that were rescheduled
system.cpu.iew.lsq.thread0.squashedLoads      2540549                       # Number of loads squashed
system.cpu.iew.lsq.thread0.squashedStores       927443                       # Number of stores squashed
system.cpu.iew.memOrderViolationEvents            796                       # Number of memory order violations
system.cpu.iew.predictedNotTakenIncorrect       640219                       # Number of branches that were predicted not taken incorrectly
system.cpu.iew.predictedTakenIncorrect         197596                       # Number of branches that were predicted taken incorrectly
system.cpu.iew.wb_consumers                  31999730                       # num instructions consuming a value
system.cpu.iew.wb_count                      27427024                       # cumulative count of insts written-back
system.cpu.iew.wb_fanout                     0.616984                       # average fanout of values written-back
system.cpu.iew.wb_producers                  19743320                       # num instructions producing a value
system.cpu.iew.wb_rate                       1.482461                       # insts written-back per cycle
system.cpu.iew.wb_sent                       27738611                       # cumulative count of insts sent to commit
system.cpu.int_regfile_reads                 41031371                       # number of integer regfile reads
system.cpu.int_regfile_writes                23226636                       # number of integer regfile writes
system.cpu.interrupts.pwrStateResidencyTicks::UNDEFINED  18501002000                       # Cumulative time (in ticks) in various power states
system.cpu.ipc                               0.540511                       # IPC: Instructions Per Cycle
system.cpu.ipc_total                         0.540511                       # IPC: Total IPC of All Threads
system.cpu.iq.FU_type_0::No_OpClass            260223      0.88%      0.88% # Type of FU issued
system.cpu.iq.FU_type_0::IntAlu              22869411     77.75%     78.63% # Type of FU issued
system.cpu.iq.FU_type_0::IntMult                76788      0.26%     78.89% # Type of FU issued
system.cpu.iq.FU_type_0::IntDiv                168227      0.57%     79.46% # Type of FU issued
system.cpu.iq.FU_type_0::FloatAdd                 789      0.00%     79.47% # Type of FU issued
system.cpu.iq.FU_type_0::FloatCmp                   0      0.00%     79.47% # Type of FU issued
system.cpu.iq.FU_type_0::FloatCvt                3854      0.01%     79.48% # Type of FU issued
system.cpu.iq.FU_type_0::FloatMult                  0      0.00%     79.48% # Type of FU issued
system.cpu.iq.FU_type_0::FloatMultAcc               0      0.00%     79.48% # Type of FU issued
system.cpu.iq.FU_type_0::FloatDiv                   0      0.00%     79.48% # Type of FU issued
system.cpu.iq.FU_type_0::FloatMisc                  0      0.00%     79.48% # Type of FU issued
system.cpu.iq.FU_type_0::FloatSqrt                  0      0.00%     79.48% # Type of FU issued
system.cpu.iq.FU_type_0::SimdAdd                   34      0.00%     79.48% # Type of FU issued
system.cpu.iq.FU_type_0::SimdAddAcc                 0      0.00%     79.48% # Type of FU issued
system.cpu.iq.FU_type_0::SimdAlu                 2616      0.01%     79.49% # Type of FU issued
system.cpu.iq.FU_type_0::SimdCmp                   24      0.00%     79.49% # Type of FU issued
system.cpu.iq.FU_type_0::SimdCvt                 1969      0.01%     79.50% # Type of FU issued
system.cpu.iq.FU_type_0::SimdMisc                5130      0.02%     79.51% # Type of FU issued
system.cpu.iq.FU_type_0::SimdMult                   0      0.00%     79.51% # Type of FU issued
system.cpu.iq.FU_type_0::SimdMultAcc                0      0.00%     79.51% # Type of FU issued
system.cpu.iq.FU_type_0::SimdShift                 31      0.00%     79.51% # Type of FU issued
system.cpu.iq.FU_type_0::SimdShiftAcc               0      0.00%     79.51% # Type of FU issued
system.cpu.iq.FU_type_0::SimdDiv                    0      0.00%     79.51% # Type of FU issued
system.cpu.iq.FU_type_0::SimdSqrt                   0      0.00%     79.51% # Type of FU issued
system.cpu.iq.FU_type_0::SimdFloatAdd              13      0.00%     79.51% # Type of FU issued
system.cpu.iq.FU_type_0::SimdFloatAlu               0      0.00%     79.51% # Type of FU issued
system.cpu.iq.FU_type_0::SimdFloatCmp               0      0.00%     79.51% # Type of FU issued
system.cpu.iq.FU_type_0::SimdFloatCvt            1301      0.00%     79.52% # Type of FU issued
system.cpu.iq.FU_type_0::SimdFloatDiv               2      0.00%     79.52% # Type of FU issued
system.cpu.iq.FU_type_0::SimdFloatMisc              0      0.00%     79.52% # Type of FU issued
system.cpu.iq.FU_type_0::SimdFloatMult            490      0.00%     79.52% # Type of FU issued
system.cpu.iq.FU_type_0::SimdFloatMultAcc            0      0.00%     79.52% # Type of FU issued
system.cpu.iq.FU_type_0::SimdFloatSqrt              1      0.00%     79.52% # Type of FU issued
system.cpu.iq.FU_type_0::SimdReduceAdd              0      0.00%     79.52% # Type of FU issued
system.cpu.iq.FU_type_0::SimdReduceAlu              0      0.00%     79.52% # Type of FU issued
system.cpu.iq.FU_type_0::SimdReduceCmp              0      0.00%     79.52% # Type of FU issued
system.cpu.iq.FU_type_0::SimdFloatReduceAdd            0      0.00%     79.52% # Type of FU issued
system.cpu.iq.FU_type_0::SimdFloatReduceCmp            0      0.00%     79.52% # Type of FU issued
system.cpu.iq.FU_type_0::SimdAes                    0      0.00%     79.52% # Type of FU issued
system.cpu.iq.FU_type_0::SimdAesMix                 0      0.00%     79.52% # Type of FU issued
system.cpu.iq.FU_type_0::SimdSha1Hash               0      0.00%     79.52% # Type of FU issued
system.cpu.iq.FU_type_0::SimdSha1Hash2              0      0.00%     79.52% # Type of FU issued
system.cpu.iq.FU_type_0::SimdSha256Hash             0      0.00%     79.52% # Type of FU issued
system.cpu.iq.FU_type_0::SimdSha256Hash2            0      0.00%     79.52% # Type of FU issued
system.cpu.iq.FU_type_0::SimdShaSigma2              0      0.00%     79.52% # Type of FU issued
system.cpu.iq.FU_type_0::SimdShaSigma3              0      0.00%     79.52% # Type of FU issued
system.cpu.iq.FU_type_0::SimdPredAlu                0      0.00%     79.52% # Type of FU issued
system.cpu.iq.FU_type_0::MemRead              4223380     14.36%     93.88% # Type of FU issued
system.cpu.iq.FU_type_0::MemWrite             1782914      6.06%     99.94% # Type of FU issued
system.cpu.iq.FU_type_0::FloatMemRead            6698      0.02%     99.96% # Type of FU issued
system.cpu.iq.FU_type_0::FloatMemWrite          11277      0.04%    100.00% # Type of FU issued
system.cpu.iq.FU_type_0::IprAccess                  0      0.00%    100.00% # Type of FU issued
system.cpu.iq.FU_type_0::InstPrefetch               0      0.00%    100.00% # Type of FU issued
system.cpu.iq.FU_type_0::total               29415172                       # Type of FU issued
system.cpu.iq.fp_alu_accesses                   36084                       # Number of floating point alu accesses
system.cpu.iq.fp_inst_queue_reads               71429                       # Number of floating instruction queue reads
system.cpu.iq.fp_inst_queue_wakeup_accesses        33576                       # Number of floating instruction queue wakeup accesses
system.cpu.iq.fp_inst_queue_writes              56118                       # Number of floating instruction queue writes
system.cpu.iq.fu_busy_cnt                      504191                       # FU busy when requested
system.cpu.iq.fu_busy_rate                   0.017141                       # FU busy rate (busy events/executed inst)
system.cpu.iq.fu_full::No_OpClass                   0      0.00%      0.00% # attempts to use FU when none available
system.cpu.iq.fu_full::IntAlu                  468482     92.92%     92.92% # attempts to use FU when none available
system.cpu.iq.fu_full::IntMult                      0      0.00%     92.92% # attempts to use FU when none available
system.cpu.iq.fu_full::IntDiv                       0      0.00%     92.92% # attempts to use FU when none available
system.cpu.iq.fu_full::FloatAdd                     0      0.00%     92.92% # attempts to use FU when none available
system.cpu.iq.fu_full::FloatCmp                     0      0.00%     92.92% # attempts to use FU when none available
system.cpu.iq.fu_full::FloatCvt                     8      0.00%     92.92% # attempts to use FU when none available
system.cpu.iq.fu_full::FloatMult                    0      0.00%     92.92% # attempts to use FU when none available
system.cpu.iq.fu_full::FloatMultAcc                 0      0.00%     92.92% # attempts to use FU when none available
system.cpu.iq.fu_full::FloatDiv                     0      0.00%     92.92% # attempts to use FU when none available
system.cpu.iq.fu_full::FloatMisc                    0      0.00%     92.92% # attempts to use FU when none available
system.cpu.iq.fu_full::FloatSqrt                    0      0.00%     92.92% # attempts to use FU when none available
system.cpu.iq.fu_full::SimdAdd                      0      0.00%     92.92% # attempts to use FU when none available
system.cpu.iq.fu_full::SimdAddAcc                   0      0.00%     92.92% # attempts to use FU when none available
system.cpu.iq.fu_full::SimdAlu                    186      0.04%     92.96% # attempts to use FU when none available
system.cpu.iq.fu_full::SimdCmp                      0      0.00%     92.96% # attempts to use FU when none available
system.cpu.iq.fu_full::SimdCvt                     13      0.00%     92.96% # attempts to use FU when none available
system.cpu.iq.fu_full::SimdMisc                     0      0.00%     92.96% # attempts to use FU when none available
system.cpu.iq.fu_full::SimdMult                     0      0.00%     92.96% # attempts to use FU when none available
system.cpu.iq.fu_full::SimdMultAcc                  0      0.00%     92.96% # attempts to use FU when none available
system.cpu.iq.fu_full::SimdShift                    0      0.00%     92.96% # attempts to use FU when none available
system.cpu.iq.fu_full::SimdShiftAcc                 0      0.00%     92.96% # attempts to use FU when none available
system.cpu.iq.fu_full::SimdDiv                      0      0.00%     92.96% # attempts to use FU when none available
system.cpu.iq.fu_full::SimdSqrt                     0      0.00%     92.96% # attempts to use FU when none available
system.cpu.iq.fu_full::SimdFloatAdd                 0      0.00%     92.96% # attempts to use FU when none available
system.cpu.iq.fu_full::SimdFloatAlu                 0      0.00%     92.96% # attempts to use FU when none available
system.cpu.iq.fu_full::SimdFloatCmp                 0      0.00%     92.96% # attempts to use FU when none available
system.cpu.iq.fu_full::SimdFloatCvt                 0      0.00%     92.96% # attempts to use FU when none available
system.cpu.iq.fu_full::SimdFloatDiv                 0      0.00%     92.96% # attempts to use FU when none available
system.cpu.iq.fu_full::SimdFloatMisc                0      0.00%     92.96% # attempts to use FU when none available
system.cpu.iq.fu_full::SimdFloatMult                0      0.00%     92.96% # attempts to use FU when none available
system.cpu.iq.fu_full::SimdFloatMultAcc             0      0.00%     92.96% # attempts to use FU when none available
system.cpu.iq.fu_full::SimdFloatSqrt                0      0.00%     92.96% # attempts to use FU when none available
system.cpu.iq.fu_full::SimdReduceAdd                0      0.00%     92.96% # attempts to use FU when none available
system.cpu.iq.fu_full::SimdReduceAlu                0      0.00%     92.96% # attempts to use FU when none available
system.cpu.iq.fu_full::SimdReduceCmp                0      0.00%     92.96% # attempts to use FU when none available
system.cpu.iq.fu_full::SimdFloatReduceAdd            0      0.00%     92.96% # attempts to use FU when none available
system.cpu.iq.fu_full::SimdFloatReduceCmp            0      0.00%     92.96% # attempts to use FU when none available
system.cpu.iq.fu_full::SimdAes                      0      0.00%     92.96% # attempts to use FU when none available
system.cpu.iq.fu_full::SimdAesMix                   0      0.00%     92.96% # attempts to use FU when none available
system.cpu.iq.fu_full::SimdSha1Hash                 0      0.00%     92.96% # attempts to use FU when none available
system.cpu.iq.fu_full::SimdSha1Hash2                0      0.00%     92.96% # attempts to use FU when none available
system.cpu.iq.fu_full::SimdSha256Hash               0      0.00%     92.96% # attempts to use FU when none available
system.cpu.iq.fu_full::SimdSha256Hash2              0      0.00%     92.96% # attempts to use FU when none available
system.cpu.iq.fu_full::SimdShaSigma2                0      0.00%     92.96% # attempts to use FU when none available
system.cpu.iq.fu_full::SimdShaSigma3                0      0.00%     92.96% # attempts to use FU when none available
system.cpu.iq.fu_full::SimdPredAlu                  0      0.00%     92.96% # attempts to use FU when none available
system.cpu.iq.fu_full::MemRead                  22308      4.42%     97.38% # attempts to use FU when none available
system.cpu.iq.fu_full::MemWrite                 12536      2.49%     99.87% # attempts to use FU when none available
system.cpu.iq.fu_full::FloatMemRead               441      0.09%     99.96% # attempts to use FU when none available
system.cpu.iq.fu_full::FloatMemWrite              217      0.04%    100.00% # attempts to use FU when none available
system.cpu.iq.fu_full::IprAccess                    0      0.00%    100.00% # attempts to use FU when none available
system.cpu.iq.fu_full::InstPrefetch                 0      0.00%    100.00% # attempts to use FU when none available
system.cpu.iq.int_alu_accesses               29623056                       # Number of integer alu accesses
system.cpu.iq.int_inst_queue_reads           76702202                       # Number of integer instruction queue reads
system.cpu.iq.int_inst_queue_wakeup_accesses     27393448                       # Number of integer instruction queue wakeup accesses
system.cpu.iq.int_inst_queue_writes          50883105                       # Number of integer instruction queue writes
system.cpu.iq.iqInstsAdded                   35078403                       # Number of instructions added to the IQ (excludes non-spec)
system.cpu.iq.iqInstsIssued                  29415172                       # Number of instructions issued
system.cpu.iq.iqNonSpecInstsAdded               36867                       # Number of non-speculative instructions added to the IQ
system.cpu.iq.iqSquashedInstsExamined        15823324                       # Number of squashed instructions iterated over during squash; mainly for profiling
system.cpu.iq.iqSquashedInstsIssued            162644                       # Number of squashed instructions issued
system.cpu.iq.iqSquashedNonSpecRemoved          35542                       # Number of squashed non-spec instructions that were removed
system.cpu.iq.iqSquashedOperandsExamined     23689297                       # Number of squashed operands that are examined and possibly removed from graph
system.cpu.iq.issued_per_cycle::samples      17276459                       # Number of insts issued each cycle
system.cpu.iq.issued_per_cycle::mean         1.702616                       # Number of insts issued each cycle
system.cpu.iq.issued_per_cycle::stdev        2.342569                       # Number of insts issued each cycle
system.cpu.iq.issued_per_cycle::underflows            0      0.00%      0.00% # Number of insts issued each cycle
system.cpu.iq.issued_per_cycle::0             9523460     55.12%     55.12% # Number of insts issued each cycle
system.cpu.iq.issued_per_cycle::1             1311024      7.59%     62.71% # Number of insts issued each cycle
system.cpu.iq.issued_per_cycle::2             1257951      7.28%     69.99% # Number of insts issued each cycle
system.cpu.iq.issued_per_cycle::3             1190465      6.89%     76.88% # Number of insts issued each cycle
system.cpu.iq.issued_per_cycle::4             1138267      6.59%     83.47% # Number of insts issued each cycle
system.cpu.iq.issued_per_cycle::5              965991      5.59%     89.06% # Number of insts issued each cycle
system.cpu.iq.issued_per_cycle::6              881969      5.11%     94.17% # Number of insts issued each cycle
system.cpu.iq.issued_per_cycle::7              716642      4.15%     98.32% # Number of insts issued each cycle
system.cpu.iq.issued_per_cycle::8              290690      1.68%    100.00% # Number of insts issued each cycle
system.cpu.iq.issued_per_cycle::overflows            0      0.00%    100.00% # Number of insts issued each cycle
system.cpu.iq.issued_per_cycle::min_value            0                       # Number of insts issued each cycle
system.cpu.iq.issued_per_cycle::max_value            8                       # Number of insts issued each cycle
system.cpu.iq.issued_per_cycle::total        17276459                       # Number of insts issued each cycle
system.cpu.iq.rate                           1.589923                       # Inst issue rate
system.cpu.iq.vec_alu_accesses                      0                       # Number of vector alu accesses
system.cpu.iq.vec_inst_queue_reads                  0                       # Number of vector instruction queue reads
system.cpu.iq.vec_inst_queue_wakeup_accesses            0                       # Number of vector instruction queue wakeup accesses
system.cpu.iq.vec_inst_queue_writes                 0                       # Number of vector instruction queue writes
system.cpu.itb.rdAccesses                           0                       # TLB accesses on read requests
system.cpu.itb.rdMisses                             0                       # TLB misses on read requests
system.cpu.itb.walker.pwrStateResidencyTicks::UNDEFINED  18501002000                       # Cumulative time (in ticks) in various power states
system.cpu.itb.wrAccesses                     3081599                       # TLB accesses on write requests
system.cpu.itb.wrMisses                         36025                       # TLB misses on write requests
system.cpu.itb_walker_cache.avg_blocked_cycles::no_mshrs          nan                       # average number of cycles each access was blocked
system.cpu.itb_walker_cache.avg_blocked_cycles::no_targets          nan                       # average number of cycles each access was blocked
system.cpu.itb_walker_cache.blocked::no_mshrs            0                       # number of cycles access was blocked
system.cpu.itb_walker_cache.blocked::no_targets            0                       # number of cycles access was blocked
system.cpu.itb_walker_cache.blocked_cycles::no_mshrs            0                       # number of cycles access was blocked
system.cpu.itb_walker_cache.blocked_cycles::no_targets            0                       # number of cycles access was blocked
system.cpu.itb_walker_cache.pwrStateResidencyTicks::UNDEFINED  18501002000                       # Cumulative time (in ticks) in various power states
system.cpu.itb_walker_cache.replacements            0                       # number of replacements
system.cpu.itb_walker_cache.tags.avg_refs          nan                       # Average number of references to valid blocks.
system.cpu.itb_walker_cache.tags.data_accesses            0                       # Number of data accesses
system.cpu.itb_walker_cache.tags.pwrStateResidencyTicks::UNDEFINED  18501002000                       # Cumulative time (in ticks) in various power states
system.cpu.itb_walker_cache.tags.sampled_refs            0                       # Sample count of references to valid blocks.
system.cpu.itb_walker_cache.tags.tag_accesses            0                       # Number of tag accesses
system.cpu.itb_walker_cache.tags.tagsinuse            0                       # Cycle average of tags in use
system.cpu.itb_walker_cache.tags.total_refs            0                       # Total number of references to valid blocks.
system.cpu.itb_walker_cache.tags.warmup_cycle            0                       # Cycle when the warmup percentage was hit.
system.cpu.memDep0.conflictingLoads             61760                       # Number of conflicting loads.
system.cpu.memDep0.conflictingStores            79876                       # Number of conflicting stores.
system.cpu.memDep0.insertedLoads              5208615                       # Number of loads inserted to the mem dependence unit.
system.cpu.memDep0.insertedStores             2171524                       # Number of stores inserted to the mem dependence unit.
system.cpu.misc_regfile_reads                12117395                       # number of misc regfile reads
system.cpu.misc_regfile_writes                    765                       # number of misc regfile writes
system.cpu.numCycles                         18501003                       # number of cpu cycles simulated
system.cpu.numWorkItemsCompleted                    0                       # number of work items this cpu completed
system.cpu.numWorkItemsStarted                      0                       # number of work items this cpu started
system.cpu.pwrStateResidencyTicks::ON     18501002000                       # Cumulative time (in ticks) in various power states
system.cpu.rename.BlockCycles                 2213816                       # Number of cycles rename is blocking
system.cpu.rename.CommittedMaps              22778958                       # Number of HB maps that are committed
system.cpu.rename.FullRegisterEvents               22                       # Number of times there has been no free registers
system.cpu.rename.IQFullEvents                 271672                       # Number of times rename has blocked due to IQ full
system.cpu.rename.IdleCycles                  8104874                       # Number of cycles rename is idle
system.cpu.rename.LQFullEvents                  19924                       # Number of times rename has blocked due to LQ full
system.cpu.rename.ROBFullEvents                 14447                       # Number of times rename has blocked due to ROB full
system.cpu.rename.RenameLookups              99672553                       # Number of register rename lookups that rename has made
system.cpu.rename.RenamedInsts               39650601                       # Number of instructions processed by rename
system.cpu.rename.RenamedOperands            44791806                       # Number of destination operands rename has renamed
system.cpu.rename.RunCycles                   5721036                       # Number of cycles rename is running
system.cpu.rename.SQFullEvents                 206151                       # Number of times rename has blocked due to SQ full
system.cpu.rename.SquashCycles                 660117                       # Number of cycles rename is squashing
system.cpu.rename.UnblockCycles                561838                       # Number of cycles rename is unblocking
system.cpu.rename.UndoneMaps                 22012698                       # Number of HB maps that are undone due to squashing
system.cpu.rename.fp_rename_lookups             55274                       # Number of floating rename lookups
system.cpu.rename.int_rename_lookups         61839722                       # Number of integer rename lookups
system.cpu.rename.serializeStallCycles          14778                       # count of cycles rename stalled for serializing inst
system.cpu.rename.serializingInsts               1153                       # count of serializing insts renamed
system.cpu.rename.skidInsts                   1015887                       # count of insts added to the skid buffer
system.cpu.rename.tempSerializingInsts           1112                       # count of temporary serializing insts renamed
system.cpu.rob.rob_reads                     49040223                       # The number of ROB reads
system.cpu.rob.rob_writes                    72793847                       # The number of ROB writes
system.cpu.timesIdled                          153855                       # Number of times that the entire CPU went into an idle state and unscheduled itself
system.cpu.workload.numSyscalls                    80                       # Number of system calls
system.cpu_clk_domain.clock                      1000                       # Clock period in ticks
system.cpu_voltage_domain.voltage                   1                       # Voltage in Volts
system.l2.CleanEvict_mshr_miss_rate::.writebacks          inf                       # mshr miss rate for CleanEvict accesses
system.l2.CleanEvict_mshr_miss_rate::total          inf                       # mshr miss rate for CleanEvict accesses
system.l2.CleanEvict_mshr_misses::.writebacks         1374                       # number of CleanEvict MSHR misses
system.l2.CleanEvict_mshr_misses::total          1374                       # number of CleanEvict MSHR misses
system.l2.HardPFReq_avg_mshr_miss_latency::.l2.prefetcher 94781.726895                       # average HardPFReq mshr miss latency
system.l2.HardPFReq_avg_mshr_miss_latency::total 94781.726895                       # average HardPFReq mshr miss latency
system.l2.HardPFReq_mshr_miss_latency::.l2.prefetcher   2557779682                       # number of HardPFReq MSHR miss cycles
system.l2.HardPFReq_mshr_miss_latency::total   2557779682                       # number of HardPFReq MSHR miss cycles
system.l2.HardPFReq_mshr_miss_rate::.l2.prefetcher          inf                       # mshr miss rate for HardPFReq accesses
system.l2.HardPFReq_mshr_miss_rate::total          inf                       # mshr miss rate for HardPFReq accesses
system.l2.HardPFReq_mshr_misses::.l2.prefetcher        26986                       # number of HardPFReq MSHR misses
system.l2.HardPFReq_mshr_misses::total          26986                       # number of HardPFReq MSHR misses
system.l2.ReadCleanReq_accesses::.cpu.inst       393207                       # number of ReadCleanReq accesses(hits+misses)
system.l2.ReadCleanReq_accesses::total         393207                       # number of ReadCleanReq accesses(hits+misses)
system.l2.ReadCleanReq_avg_miss_latency::.cpu.inst 117950.495050                       # average ReadCleanReq miss latency
system.l2.ReadCleanReq_avg_miss_latency::total 117950.495050                       # average ReadCleanReq miss latency
system.l2.ReadCleanReq_avg_mshr_miss_latency::.cpu.inst 98569.131115                       # average ReadCleanReq mshr miss latency
system.l2.ReadCleanReq_avg_mshr_miss_latency::total 98569.131115                       # average ReadCleanReq mshr miss latency
system.l2.ReadCleanReq_hits::.cpu.inst         388662                       # number of ReadCleanReq hits
system.l2.ReadCleanReq_hits::total             388662                       # number of ReadCleanReq hits
system.l2.ReadCleanReq_miss_latency::.cpu.inst    536085000                       # number of ReadCleanReq miss cycles
system.l2.ReadCleanReq_miss_latency::total    536085000                       # number of ReadCleanReq miss cycles
system.l2.ReadCleanReq_miss_rate::.cpu.inst     0.011559                       # miss rate for ReadCleanReq accesses
system.l2.ReadCleanReq_miss_rate::total      0.011559                       # miss rate for ReadCleanReq accesses
system.l2.ReadCleanReq_misses::.cpu.inst         4545                       # number of ReadCleanReq misses
system.l2.ReadCleanReq_misses::total             4545                       # number of ReadCleanReq misses
system.l2.ReadCleanReq_mshr_hits::.cpu.inst           68                       # number of ReadCleanReq MSHR hits
system.l2.ReadCleanReq_mshr_hits::total            68                       # number of ReadCleanReq MSHR hits
system.l2.ReadCleanReq_mshr_miss_latency::.cpu.inst    441294000                       # number of ReadCleanReq MSHR miss cycles
system.l2.ReadCleanReq_mshr_miss_latency::total    441294000                       # number of ReadCleanReq MSHR miss cycles
system.l2.ReadCleanReq_mshr_miss_rate::.cpu.inst     0.011386                       # mshr miss rate for ReadCleanReq accesses
system.l2.ReadCleanReq_mshr_miss_rate::total     0.011386                       # mshr miss rate for ReadCleanReq accesses
system.l2.ReadCleanReq_mshr_misses::.cpu.inst         4477                       # number of ReadCleanReq MSHR misses
system.l2.ReadCleanReq_mshr_misses::total         4477                       # number of ReadCleanReq MSHR misses
system.l2.ReadExReq_accesses::.cpu.data         13029                       # number of ReadExReq accesses(hits+misses)
system.l2.ReadExReq_accesses::total             13029                       # number of ReadExReq accesses(hits+misses)
system.l2.ReadExReq_avg_miss_latency::.cpu.data 141364.289023                       # average ReadExReq miss latency
system.l2.ReadExReq_avg_miss_latency::total 141364.289023                       # average ReadExReq miss latency
system.l2.ReadExReq_avg_mshr_miss_latency::.cpu.data 121446.917014                       # average ReadExReq mshr miss latency
system.l2.ReadExReq_avg_mshr_miss_latency::total 121446.917014                       # average ReadExReq mshr miss latency
system.l2.ReadExReq_hits::.cpu.data              8711                       # number of ReadExReq hits
system.l2.ReadExReq_hits::total                  8711                       # number of ReadExReq hits
system.l2.ReadExReq_miss_latency::.cpu.data    610411000                       # number of ReadExReq miss cycles
system.l2.ReadExReq_miss_latency::total     610411000                       # number of ReadExReq miss cycles
system.l2.ReadExReq_miss_rate::.cpu.data     0.331415                       # miss rate for ReadExReq accesses
system.l2.ReadExReq_miss_rate::total         0.331415                       # miss rate for ReadExReq accesses
system.l2.ReadExReq_misses::.cpu.data            4318                       # number of ReadExReq misses
system.l2.ReadExReq_misses::total                4318                       # number of ReadExReq misses
system.l2.ReadExReq_mshr_hits::.cpu.data            4                       # number of ReadExReq MSHR hits
system.l2.ReadExReq_mshr_hits::total                4                       # number of ReadExReq MSHR hits
system.l2.ReadExReq_mshr_miss_latency::.cpu.data    523922000                       # number of ReadExReq MSHR miss cycles
[...]
system.switch_cpus_1.iq.fu_full::FloatCmp            0      0.00%     94.47% # attempts to use FU when none available
system.switch_cpus_1.iq.fu_full::FloatCvt            0      0.00%     94.47% # attempts to use FU when none available
system.switch_cpus_1.iq.fu_full::FloatMult            0      0.00%     94.47% # attempts to use FU when none available
system.switch_cpus_1.iq.fu_full::FloatMultAcc            0      0.00%     94.47% # attempts to use FU when none available
system.switch_cpus_1.iq.fu_full::FloatDiv            0      0.00%     94.47% # attempts to use FU when none available
system.switch_cpus_1.iq.fu_full::FloatMisc            0      0.00%     94.47% # attempts to use FU when none available
system.switch_cpus_1.iq.fu_full::FloatSqrt            0      0.00%     94.47% # attempts to use FU when none available
system.switch_cpus_1.iq.fu_full::SimdAdd            0      0.00%     94.47% # attempts to use FU when none available
system.switch_cpus_1.iq.fu_full::SimdAddAcc            0      0.00%     94.47% # attempts to use FU when none available
system.switch_cpus_1.iq.fu_full::SimdAlu            0      0.00%     94.47% # attempts to use FU when none available
system.switch_cpus_1.iq.fu_full::SimdCmp            0      0.00%     94.47% # attempts to use FU when none available
system.switch_cpus_1.iq.fu_full::SimdCvt            0      0.00%     94.47% # attempts to use FU when none available
system.switch_cpus_1.iq.fu_full::SimdMisc            0      0.00%     94.47% # attempts to use FU when none available
system.switch_cpus_1.iq.fu_full::SimdMult            0      0.00%     94.47% # attempts to use FU when none available
system.switch_cpus_1.iq.fu_full::SimdMultAcc            0      0.00%     94.47% # attempts to use FU when none available
system.switch_cpus_1.iq.fu_full::SimdShift            0      0.00%     94.47% # attempts to use FU when none available
system.switch_cpus_1.iq.fu_full::SimdShiftAcc            0      0.00%     94.47% # attempts to use FU when none available
system.switch_cpus_1.iq.fu_full::SimdDiv            0      0.00%     94.47% # attempts to use FU when none available
system.switch_cpus_1.iq.fu_full::SimdSqrt            0      0.00%     94.47% # attempts to use FU when none available
system.switch_cpus_1.iq.fu_full::SimdFloatAdd            0      0.00%     94.47% # attempts to use FU when none available
system.switch_cpus_1.iq.fu_full::SimdFloatAlu            0      0.00%     94.47% # attempts to use FU when none available
system.switch_cpus_1.iq.fu_full::SimdFloatCmp            0      0.00%     94.47% # attempts to use FU when none available
system.switch_cpus_1.iq.fu_full::SimdFloatCvt            0      0.00%     94.47% # attempts to use FU when none available
system.switch_cpus_1.iq.fu_full::SimdFloatDiv            0      0.00%     94.47% # attempts to use FU when none available
system.switch_cpus_1.iq.fu_full::SimdFloatMisc            0      0.00%     94.47% # attempts to use FU when none available
system.switch_cpus_1.iq.fu_full::SimdFloatMult            0      0.00%     94.47% # attempts to use FU when none available
system.switch_cpus_1.iq.fu_full::SimdFloatMultAcc            0      0.00%     94.47% # attempts to use FU when none available
system.switch_cpus_1.iq.fu_full::SimdFloatSqrt            0      0.00%     94.47% # attempts to use FU when none available
system.switch_cpus_1.iq.fu_full::SimdReduceAdd            0      0.00%     94.47% # attempts to use FU when none available
system.switch_cpus_1.iq.fu_full::SimdReduceAlu            0      0.00%     94.47% # attempts to use FU when none available
system.switch_cpus_1.iq.fu_full::SimdReduceCmp            0      0.00%     94.47% # attempts to use FU when none available
system.switch_cpus_1.iq.fu_full::SimdFloatReduceAdd            0      0.00%     94.47% # attempts to use FU when none available
system.switch_cpus_1.iq.fu_full::SimdFloatReduceCmp            0      0.00%     94.47% # attempts to use FU when none available
system.switch_cpus_1.iq.fu_full::SimdAes            0      0.00%     94.47% # attempts to use FU when none available
system.switch_cpus_1.iq.fu_full::SimdAesMix            0      0.00%     94.47% # attempts to use FU when none available
system.switch_cpus_1.iq.fu_full::SimdSha1Hash            0      0.00%     94.47% # attempts to use FU when none available
system.switch_cpus_1.iq.fu_full::SimdSha1Hash2            0      0.00%     94.47% # attempts to use FU when none available
system.switch_cpus_1.iq.fu_full::SimdSha256Hash            0      0.00%     94.47% # attempts to use FU when none available
system.switch_cpus_1.iq.fu_full::SimdSha256Hash2            0      0.00%     94.47% # attempts to use FU when none available
system.switch_cpus_1.iq.fu_full::SimdShaSigma2            0      0.00%     94.47% # attempts to use FU when none available
system.switch_cpus_1.iq.fu_full::SimdShaSigma3            0      0.00%     94.47% # attempts to use FU when none available
system.switch_cpus_1.iq.fu_full::SimdPredAlu            0      0.00%     94.47% # attempts to use FU when none available
system.switch_cpus_1.iq.fu_full::MemRead        24217      3.41%     97.88% # attempts to use FU when none available
system.switch_cpus_1.iq.fu_full::MemWrite        14984      2.11%    100.00% # attempts to use FU when none available
system.switch_cpus_1.iq.fu_full::FloatMemRead           19      0.00%    100.00% # attempts to use FU when none available
system.switch_cpus_1.iq.fu_full::FloatMemWrite           14      0.00%    100.00% # attempts to use FU when none available
system.switch_cpus_1.iq.fu_full::IprAccess            0      0.00%    100.00% # attempts to use FU when none available
system.switch_cpus_1.iq.fu_full::InstPrefetch            0      0.00%    100.00% # attempts to use FU when none available
system.switch_cpus_1.iq.int_alu_accesses     26998967                       # Number of integer alu accesses
system.switch_cpus_1.iq.int_inst_queue_reads     70173778                       # Number of integer instruction queue reads
system.switch_cpus_1.iq.int_inst_queue_wakeup_accesses     25293238                       # Number of integer instruction queue wakeup accesses
system.switch_cpus_1.iq.int_inst_queue_writes     39729731                       # Number of integer instruction queue writes
system.switch_cpus_1.iq.iqInstsAdded         29783633                       # Number of instructions added to the IQ (excludes non-spec)
system.switch_cpus_1.iq.iqInstsIssued        26517097                       # Number of instructions issued
system.switch_cpus_1.iq.iqNonSpecInstsAdded        26269                       # Number of non-speculative instructions added to the IQ
system.switch_cpus_1.iq.iqSquashedInstsExamined      9947204                       # Number of squashed instructions iterated over during squash; mainly for profiling
system.switch_cpus_1.iq.iqSquashedInstsIssued        93829                       # Number of squashed instructions issued
system.switch_cpus_1.iq.iqSquashedNonSpecRemoved        25215                       # Number of squashed non-spec instructions that were removed
system.switch_cpus_1.iq.iqSquashedOperandsExamined     13946551                       # Number of squashed operands that are examined and possibly removed from graph
system.switch_cpus_1.iq.issued_per_cycle::samples     16360373                       # Number of insts issued each cycle
system.switch_cpus_1.iq.issued_per_cycle::mean     1.620812                       # Number of insts issued each cycle
system.switch_cpus_1.iq.issued_per_cycle::stdev     2.349819                       # Number of insts issued each cycle
system.switch_cpus_1.iq.issued_per_cycle::underflows            0      0.00%      0.00% # Number of insts issued each cycle
system.switch_cpus_1.iq.issued_per_cycle::0      9431484     57.65%     57.65% # Number of insts issued each cycle
system.switch_cpus_1.iq.issued_per_cycle::1      1241274      7.59%     65.24% # Number of insts issued each cycle
system.switch_cpus_1.iq.issued_per_cycle::2      1153208      7.05%     72.28% # Number of insts issued each cycle
system.switch_cpus_1.iq.issued_per_cycle::3       981792      6.00%     78.29% # Number of insts issued each cycle
system.switch_cpus_1.iq.issued_per_cycle::4       887920      5.43%     83.71% # Number of insts issued each cycle
system.switch_cpus_1.iq.issued_per_cycle::5       805789      4.93%     88.64% # Number of insts issued each cycle
system.switch_cpus_1.iq.issued_per_cycle::6       860739      5.26%     93.90% # Number of insts issued each cycle
system.switch_cpus_1.iq.issued_per_cycle::7       706364      4.32%     98.22% # Number of insts issued each cycle
system.switch_cpus_1.iq.issued_per_cycle::8       291803      1.78%    100.00% # Number of insts issued each cycle
system.switch_cpus_1.iq.issued_per_cycle::overflows            0      0.00%    100.00% # Number of insts issued each cycle
system.switch_cpus_1.iq.issued_per_cycle::min_value            0                       # Number of insts issued each cycle
system.switch_cpus_1.iq.issued_per_cycle::max_value            8                       # Number of insts issued each cycle
system.switch_cpus_1.iq.issued_per_cycle::total     16360373                       # Number of insts issued each cycle
system.switch_cpus_1.iq.rate                 1.484870                       # Inst issue rate
system.switch_cpus_1.iq.vec_alu_accesses            0                       # Number of vector alu accesses
system.switch_cpus_1.iq.vec_inst_queue_reads            0                       # Number of vector instruction queue reads
system.switch_cpus_1.iq.vec_inst_queue_wakeup_accesses            0                       # Number of vector instruction queue wakeup accesses
system.switch_cpus_1.iq.vec_inst_queue_writes            0                       # Number of vector instruction queue writes
system.switch_cpus_1.itb.rdAccesses                 0                       # TLB accesses on read requests
system.switch_cpus_1.itb.rdMisses                   0                       # TLB misses on read requests
system.switch_cpus_1.itb.walker.pwrStateResidencyTicks::UNDEFINED 848108802000                       # Cumulative time (in ticks) in various power states
system.switch_cpus_1.itb.wrAccesses           2303371                       # TLB accesses on write requests
system.switch_cpus_1.itb.wrMisses               37519                       # TLB misses on write requests
system.switch_cpus_1.memDep0.conflictingLoads        87228                       # Number of conflicting loads.
system.switch_cpus_1.memDep0.conflictingStores        51162                       # Number of conflicting stores.
system.switch_cpus_1.memDep0.insertedLoads      4603040                       # Number of loads inserted to the mem dependence unit.
system.switch_cpus_1.memDep0.insertedStores      1628434                       # Number of stores inserted to the mem dependence unit.
system.switch_cpus_1.misc_regfile_reads      11299517                       # number of misc regfile reads
system.switch_cpus_1.misc_regfile_writes            1                       # number of misc regfile writes
system.switch_cpus_1.numCycles               17858193                       # number of cpu cycles simulated
system.switch_cpus_1.numWorkItemsCompleted            0                       # number of work items this cpu completed
system.switch_cpus_1.numWorkItemsStarted            0                       # number of work items this cpu started
system.switch_cpus_1.pwrStateResidencyTicks::OFF 848108802000                       # Cumulative time (in ticks) in various power states
system.switch_cpus_1.rename.BlockCycles       4112968                       # Number of cycles rename is blocking
system.switch_cpus_1.rename.CommittedMaps     23478817                       # Number of HB maps that are committed
system.switch_cpus_1.rename.IQFullEvents       583064                       # Number of times rename has blocked due to IQ full
system.switch_cpus_1.rename.IdleCycles        6234212                       # Number of cycles rename is idle
system.switch_cpus_1.rename.LQFullEvents        71500                       # Number of times rename has blocked due to LQ full
system.switch_cpus_1.rename.ROBFullEvents        51032                       # Number of times rename has blocked due to ROB full
system.switch_cpus_1.rename.RenameLookups     81073298                       # Number of register rename lookups that rename has made
system.switch_cpus_1.rename.RenamedInsts     32446654                       # Number of instructions processed by rename
system.switch_cpus_1.rename.RenamedOperands     37133493                       # Number of destination operands rename has renamed
system.switch_cpus_1.rename.RunCycles         4526532                       # Number of cycles rename is running
system.switch_cpus_1.rename.SQFullEvents       274054                       # Number of times rename has blocked due to SQ full
system.switch_cpus_1.rename.SquashCycles       422211                       # Number of cycles rename is squashing
system.switch_cpus_1.rename.UnblockCycles      1064015                       # Number of cycles rename is unblocking
system.switch_cpus_1.rename.UndoneMaps       13654444                       # Number of HB maps that are undone due to squashing
system.switch_cpus_1.rename.fp_rename_lookups        27163                       # Number of floating rename lookups
system.switch_cpus_1.rename.int_rename_lookups     49079034                       # Number of integer rename lookups
system.switch_cpus_1.rename.serializeStallCycles          428                       # count of cycles rename stalled for serializing inst
system.switch_cpus_1.rename.serializingInsts           70                       # count of serializing insts renamed
system.switch_cpus_1.rename.skidInsts         2007950                       # count of insts added to the skid buffer
system.switch_cpus_1.rename.tempSerializingInsts           68                       # count of temporary serializing insts renamed
system.switch_cpus_1.rob.rob_reads           43351970                       # The number of ROB reads
system.switch_cpus_1.rob.rob_writes          61272111                       # The number of ROB writes
system.switch_cpus_1.timesIdled                124525                       # Number of times that the entire CPU went into an idle state and unscheduled itself
system.tol2bus.pkt_count_system.cpu.icache.mem_side::system.l2.cpu_side     11310371                       # Packet count per connected master and slave (bytes)
system.tol2bus.pkt_count_system.cpu.dcache.mem_side::system.l2.cpu_side      7605875                       # Packet count per connected master and slave (bytes)
system.tol2bus.pkt_count::total              18916246                       # Packet count per connected master and slave (bytes)
system.tol2bus.pkt_size_system.cpu.icache.mem_side::system.l2.cpu_side    482561984                       # Cumulative packet size per connected master and slave (bytes)
system.tol2bus.pkt_size_system.cpu.dcache.mem_side::system.l2.cpu_side    200331328                       # Cumulative packet size per connected master and slave (bytes)
system.tol2bus.pkt_size::total              682893312                       # Cumulative packet size per connected master and slave (bytes)
system.tol2bus.pwrStateResidencyTicks::UNDEFINED 848108802000                       # Cumulative time (in ticks) in various power states
system.tol2bus.reqLayer0.occupancy        21340221856                       # Layer occupancy (ticks)
system.tol2bus.reqLayer0.utilization              2.5                       # Layer utilization (%)
system.tol2bus.respLayer0.occupancy       11311201818                       # Layer occupancy (ticks)
system.tol2bus.respLayer0.utilization             1.3                       # Layer utilization (%)
system.tol2bus.respLayer1.occupancy        7606918764                       # Layer occupancy (ticks)
system.tol2bus.respLayer1.utilization             0.9                       # Layer utilization (%)
system.tol2bus.snoopTraffic                  11493568                       # Total snoop traffic (bytes)
system.tol2bus.snoop_fanout::samples         11484723                       # Request fanout histogram
system.tol2bus.snoop_fanout::mean            0.031607                       # Request fanout histogram
system.tol2bus.snoop_fanout::stdev           0.174973                       # Request fanout histogram
system.tol2bus.snoop_fanout::underflows             0      0.00%      0.00% # Request fanout histogram
system.tol2bus.snoop_fanout::0               11121766     96.84%     96.84% # Request fanout histogram
system.tol2bus.snoop_fanout::1                 362914      3.16%    100.00% # Request fanout histogram
system.tol2bus.snoop_fanout::2                     43      0.00%    100.00% # Request fanout histogram
system.tol2bus.snoop_fanout::3                      0      0.00%    100.00% # Request fanout histogram
system.tol2bus.snoop_fanout::4                      0      0.00%    100.00% # Request fanout histogram
system.tol2bus.snoop_fanout::overflows              0      0.00%    100.00% # Request fanout histogram
system.tol2bus.snoop_fanout::min_value              0                       # Request fanout histogram
system.tol2bus.snoop_fanout::max_value              2                       # Request fanout histogram
system.tol2bus.snoop_fanout::total           11484723                       # Request fanout histogram
system.tol2bus.snoop_filter.hit_multi_requests         3994                       # Number of requests hitting in the snoop filter with multiple (>1) holders of the requested data.
system.tol2bus.snoop_filter.hit_multi_snoops           43                       # Number of snoops hitting in the snoop filter with multiple (>1) holders of the requested data.
system.tol2bus.snoop_filter.hit_single_requests      6304804                       # Number of requests hitting in the snoop filter with a single holder of the requested data.
system.tol2bus.snoop_filter.hit_single_snoops       358914                       # Number of snoops hitting in the snoop filter with a single holder of the requested data.
system.tol2bus.snoop_filter.tot_requests     12610772                       # Total number of requests made to the snoop filter.
system.tol2bus.snoop_filter.tot_snoops         358957                       # Total number of snoops made to the snoop filter.
system.tol2bus.snoops                         5178925                       # Total snoops (count)
system.tol2bus.trans_dist::ReadResp           6082596                       # Transaction distribution
system.tol2bus.trans_dist::WritebackDirty       774001                       # Transaction distribution
system.tol2bus.trans_dist::WritebackClean      3769965                       # Transaction distribution
system.tol2bus.trans_dist::CleanEvict         4580348                       # Transaction distribution
system.tol2bus.trans_dist::HardPFReq          2358767                       # Transaction distribution
system.tol2bus.trans_dist::UpgradeReq             216                       # Transaction distribution
system.tol2bus.trans_dist::UpgradeResp            216                       # Transaction distribution
system.tol2bus.trans_dist::ReadExReq           223233                       # Transaction distribution
system.tol2bus.trans_dist::ReadExResp          223233                       # Transaction distribution
system.tol2bus.trans_dist::ReadCleanReq       3770340                       # Transaction distribution
system.tol2bus.trans_dist::ReadSharedReq      2312256                       # Transaction distribution
system.voltage_domain.voltage                       1                       # Voltage in Volts

---------- End Simulation Statistics   ----------
