Running SPEC test: gcc

/home/victorfu/cpu2017/benchspec/CPU/502.gcc_r
/home/victorfu/finalproject/gem5/build/X86/gem6.opt --outdir="/home/victorfu/output/bench_spec/fastforward-p3/gcc" /home/victorfu/finalproject/gem5/configs/example/se.py --cmd=cpugcc_r_base.victor_jun10-m64 --standard-switch=0 --warmup-insts=24000000 --caches  --l2cache --l1i_size=16kB  --l1d_size=64kB --l2_size=256kB --cpu-type=DerivO3CPU  --mem-type=DDR3_1600_8x8  --cpu-clock=1GHz --maxinsts=100000000  --l2-hwp-type=TaggedPrefetcher --mlu_pf_type=perceptron

gem5 Simulator System.  http://gem5.org
gem5 is copyrighted software; use the --copyright option for details.

gem5 compiled Jun 14 2019 14:23:51
gem5 started Jun 14 2019 15:51:56
gem5 executing on tetracosa.cs.ucla.edu, pid 346930
command line: /home/victorfu/finalproject/gem5/build/X86/gem6.opt --outdir=/home/victorfu/output/bench_spec/fastforward-p3/gcc /home/victorfu/finalproject/gem5/configs/example/se.py --cmd=cpugcc_r_base.victor_jun10-m64 --standard-switch=0 --warmup-insts=24000000 --caches --l2cache --l1i_size=16kB --l1d_size=64kB --l2_size=256kB --cpu-type=DerivO3CPU --mem-type=DDR3_1600_8x8 --cpu-clock=1GHz --maxinsts=100000000 --l2-hwp-type=TaggedPrefetcher --mlu_pf_type=perceptron

info: Standard input is not a terminal, disabling listeners.
Warning: l2-hwp-type is set ( TaggedPrefetcher ), but the current l2 has a default Hardware Prefetcher of type <class 'm5.params.NullSimObject'> , using the specified by the flag option.
MLU-Prefetch Perceptron Enabled.
Global frequency set at 1000000000000 ticks per second
warn: DRAM device capacity (8192 Mbytes) does not match the address range assigned (512 Mbytes)
warn: Sockets disabled, not accepting gdb connections
**** REAL SIMULATION ****
info: Entering event queue @ 0.  Starting simulation...
accept
accept
accept
accept
accept
accept
accept
accept
accept
accept
accept
accept
accept
accept
accept
accept
accept
accept
accept
accept
accept
accept
accept
accept
accept
accept
accept
accept
accept
accept
accept
accept
accept
accept
accept
accept
accept
accept
accept
accept
accept
accept
accept
accept
accept
accept
accept
accept
accept
accept
accept
accept
accept
accept
accept
accept
accept
accept
accept
accept
accept
accept
accept
accept
accept
accept
accept
accept
accept
accept
accept
accept
accept
accept
accept
accept
accept
accept
accept
accept
accept
accept
accept
accept
accept
accept
accept
accept
accept
accept
accept
accept
accept
accept
accept
accept
accept
accept
accept
accept
accept
accept
accept
accept
accept
accept
accept
accept
accept
accept
accept
accept
accept
accept
accept
accept
accept
accept
accept
accept
accept
accept
accept
accept
info: Increasing stack size by one page.
accept
accept
accept
accept
accept
accept
accept
accept
accept
accept
accept
accept
accept
accept
accept
accept
accept
accept
accept
accept
accept
accept
accept
accept
accept
accept
accept
accept
accept
accept
accept
accept
accept
accept
accept
accept
accept
accept
accept
accept
accept
accept
accept
accept
accept
accept
accept
accept
accept
accept
accept
accept
accept
accept
accept
accept
accept
accept
accept
accept
accept
accept
accept
accept
accept
accept
accept
accept
accept
accept
accept
accept
accept
accept
accept
accept
accept
accept
accept
accept
accept
accept
accept
accept
accept
accept
accept
accept
accept
accept
accept
accept
accept
accept
accept
accept
accept
accept
accept
accept
accept
accept
accept
accept
accept
accept
accept
accept
accept
accept
accept
accept
accept
accept
accept
accept
accept
accept
accept
accept
accept
accept
accept
accept
accept
accept
accept
accept
accept
accept
accept
accept
accept
accept
accept
accept
accept
accept
accept
accept
accept
accept
accept
accept
accept
accept
accept
accept
accept
accept
weight of 0 is -0.535870
weight of 1 is -0.003506
weight of 2 is -0.355556
weight of 3 is -1.000000
not used!
deny
deny
weight of 0 is -1.071750
weight of 1 is -0.004544
weight of 2 is -1.244444
weight of 3 is -2.000000
not used!
deny
deny
weight of 0 is -1.607629
weight of 1 is -0.004565
weight of 2 is -2.311111
weight of 3 is -3.000000
not used!
deny
deny
deny
deny
weight of 0 is -1.072253
weight of 1 is -0.003833
weight of 2 is -2.311111
weight of 3 is -2.000000
used!
weight of 0 is -0.536877
weight of 1 is -0.003100
weight of 2 is -2.311111
weight of 3 is -1.000000
used!
deny
deny
deny
deny
deny
deny
weight of 0 is -0.001501
weight of 1 is -0.003081
weight of 2 is -2.311111
weight of 3 is 0.000000
used!
weight of 0 is 0.533876
weight of 1 is -0.003062
weight of 2 is -2.311111
weight of 3 is 1.000000
used!
weight of 0 is -0.002003
weight of 1 is -0.003177
weight of 2 is -2.666667
weight of 3 is 0.000000
not used!
accept
accept
weight of 0 is -0.537883
weight of 1 is -0.003206
weight of 2 is -3.733333
weight of 3 is -1.000000
not used!
deny
deny
weight of 0 is -0.002506
weight of 1 is 0.037457
weight of 2 is -3.733333
weight of 3 is 0.000000
used!
weight of 0 is 0.532870
weight of 1 is 0.078120
weight of 2 is -3.733333
weight of 3 is 1.000000
used!
accept
accept
weight of 0 is 1.068246
weight of 1 is 0.118886
weight of 2 is -3.733333
weight of 3 is 2.000000
used!
weight of 0 is 1.603622
weight of 1 is 0.159652
weight of 2 is -3.733333
weight of 3 is 3.000000
used!
accept
accept
weight of 0 is 1.067742
weight of 1 is 0.118630
weight of 2 is -4.444444
weight of 3 is 2.000000
not used!
accept
accept
accept
accept
weight of 0 is 0.531862
weight of 1 is 0.118602
weight of 2 is -4.444444
weight of 3 is 1.000000
not used!
weight of 0 is -0.004007
weight of 1 is 0.117700
weight of 2 is -4.444444
weight of 3 is 0.000000
not used!
accept
accept
weight of 0 is -0.539384
weight of 1 is 0.077664
weight of 2 is -4.444444
weight of 3 is -1.000000
not used!
deny
deny
deny
deny
deny
deny
weight of 0 is -1.074744
weight of 1 is 0.076349
weight of 2 is -4.444444
weight of 3 is -2.000000
not used!
deny
deny
weight of 0 is -1.610103
weight of 1 is 0.076344
weight of 2 is -5.511111
weight of 3 is -3.000000
not used!
deny
deny
weight of 0 is -2.145464
weight of 1 is 0.076297
weight of 2 is -5.688889
weight of 3 is -4.000000
not used!
deny
deny
weight of 0 is -2.681330
weight of 1 is 0.035109
weight of 2 is -6.400000
weight of 3 is -5.000000
not used!
deny
deny
deny
deny
weight of 0 is -3.217095
weight of 1 is 0.026871
weight of 2 is -6.400000
weight of 3 is -6.000000
not used!
deny
deny
weight of 0 is -3.752452
weight of 1 is -0.006307
weight of 2 is -6.488889
weight of 3 is -7.000000
not used!
deny
deny
weight of 0 is -3.217076
weight of 1 is -0.000764
weight of 2 is -6.488889
weight of 3 is -6.000000
used!
weight of 0 is -2.681700
weight of 1 is 0.004778
weight of 2 is -6.488889
weight of 3 is -5.000000
used!
deny
deny
deny
deny
weight of 0 is -3.217580
weight of 1 is -0.036261
weight of 2 is -7.022222
weight of 3 is -6.000000
not used!
deny
deny
weight of 0 is -2.681975
weight of 1 is -0.036194
weight of 2 is -6.400000
weight of 3 is -5.000000
used!
weight of 0 is -2.146369
weight of 1 is -0.036127
weight of 2 is -5.777778
weight of 3 is -4.000000
used!
deny
deny
weight of 0 is -1.610993
weight of 1 is -0.028499
weight of 2 is -5.777778
weight of 3 is -3.000000
used!
weight of 0 is -1.075617
weight of 1 is -0.020871
weight of 2 is -5.777778
weight of 3 is -2.000000
used!
weight of 0 is -1.610973
weight of 1 is -0.063656
weight of 2 is -5.866667
weight of 3 is -3.000000
not used!
deny
deny
weight of 0 is -1.075597
weight of 1 is -0.063637
weight of 2 is -5.866667
weight of 3 is -2.000000
used!
weight of 0 is -0.540221
weight of 1 is -0.063618
weight of 2 is -5.866667
weight of 3 is -1.000000
used!
weight of 0 is -1.075576
weight of 1 is -0.063647
weight of 2 is -6.666667
weight of 3 is -2.000000
not used!
deny
deny
weight of 0 is -0.540200
weight of 1 is -0.033084
weight of 2 is -6.666667
weight of 3 is -1.000000
used!
weight of 0 is -0.004824
weight of 1 is -0.002522
weight of 2 is -6.666667
weight of 3 is 0.000000
used!
weight of 0 is -0.540181
weight of 1 is -0.002642
weight of 2 is -8.000000
weight of 3 is -1.000000
not used!
deny
deny
weight of 0 is -0.004804
weight of 1 is -0.002623
weight of 2 is -8.000000
weight of 3 is 0.000000
used!
weight of 0 is 0.530572
weight of 1 is -0.002604
weight of 2 is -8.000000
weight of 3 is 1.000000
used!
weight of 0 is -0.004785
weight of 1 is -0.002606
weight of 2 is -8.000000
weight of 3 is 0.000000
not used!
weight of 0 is -0.540161
weight of 1 is -0.004240
weight of 2 is -8.000000
weight of 3 is -1.000000
not used!
deny
deny
deny
deny
weight of 0 is -0.004785
weight of 1 is -0.004202
weight of 2 is -8.000000
weight of 3 is 0.000000
used!
weight of 0 is 0.530591
weight of 1 is -0.004165
weight of 2 is -8.000000
weight of 3 is 1.000000
used!
deny
deny
accept
accept
weight of 0 is 1.065967
weight of 1 is -0.004146
weight of 2 is -8.000000
weight of 3 is 2.000000
used!
weight of 0 is 1.601344
weight of 1 is -0.004127
weight of 2 is -8.000000
weight of 3 is 3.000000
used!
weight of 0 is 1.065967
weight of 1 is -0.016546
weight of 2 is -8.000000
weight of 3 is 2.000000
not used!
weight of 0 is 0.530057
weight of 1 is -0.048881
weight of 2 is -8.177778
weight of 3 is 1.000000
not used!
accept
accept
weight of 0 is -0.005159
weight of 1 is -0.094203
weight of 2 is -9.244444
weight of 3 is 0.000000
not used!
weight of 0 is -0.541039
weight of 1 is -0.137050
weight of 2 is -9.777778
weight of 3 is -1.000000
not used!
weight of 0 is -1.076915
weight of 1 is -0.151189
weight of 2 is -10.666667
weight of 3 is -2.000000
not used!
deny
deny
weight of 0 is -1.612498
weight of 1 is -0.153918
weight of 2 is -11.911111
weight of 3 is -3.000000
not used!
deny
deny
deny
deny
deny
deny
weight of 0 is -1.077122
weight of 1 is -0.139546
weight of 2 is -11.911111
weight of 3 is -2.000000
used!
weight of 0 is -0.541746
weight of 1 is -0.125174
weight of 2 is -11.911111
weight of 3 is -1.000000
used!
weight of 0 is -1.077329
weight of 1 is -0.141967
weight of 2 is -13.155556
weight of 3 is -2.000000
not used!
deny
deny
deny
deny
weight of 0 is -1.612774
weight of 1 is -0.153122
weight of 2 is -13.333333
weight of 3 is -3.000000
not used!
deny
deny
weight of 0 is -2.148219
weight of 1 is -0.153142
weight of 2 is -13.422222
weight of 3 is -4.000000
not used!
deny
deny
weight of 0 is -1.612843
weight of 1 is -0.153123
weight of 2 is -13.422222
weight of 3 is -3.000000
used!
weight of 0 is -1.077467
weight of 1 is -0.153105
weight of 2 is -13.422222
weight of 3 is -2.000000
used!
weight of 0 is -1.612911
weight of 1 is -0.162145
weight of 2 is -14.044444
weight of 3 is -3.000000
not used!
deny
deny
weight of 0 is -1.077535
weight of 1 is -0.162126
weight of 2 is -14.044444
weight of 3 is -2.000000
used!
weight of 0 is -0.542159
weight of 1 is -0.162107
weight of 2 is -14.044444
weight of 3 is -1.000000
used!
deny
deny
weight of 0 is -1.077535
weight of 1 is -0.178884
weight of 2 is -14.044444
weight of 3 is -2.000000
not used!
deny
deny
deny
deny
weight of 0 is -0.542159
weight of 1 is -0.157899
weight of 2 is -14.044444
weight of 3 is -1.000000
used!
weight of 0 is -0.006783
weight of 1 is -0.136913
weight of 2 is -14.044444
weight of 3 is 0.000000
used!
weight of 0 is -0.542159
weight of 1 is -0.136951
weight of 2 is -14.044444
weight of 3 is -1.000000
not used!
deny
deny
weight of 0 is -0.006783
weight of 1 is -0.128948
weight of 2 is -14.044444
weight of 3 is 0.000000
used!
weight of 0 is 0.528594
weight of 1 is -0.120944
weight of 2 is -14.044444
weight of 3 is 1.000000
used!
deny
deny
accept
accept
weight of 0 is -0.006990
weight of 1 is -0.137740
weight of 2 is -14.044444
weight of 3 is 0.000000
not used!
weight of 0 is -0.542535
weight of 1 is -0.140058
weight of 2 is -14.933333
weight of 3 is -1.000000
not used!
deny
deny
weight of 0 is -0.007159
weight of 1 is -0.140039
weight of 2 is -14.933333
weight of 3 is 0.000000
used!
weight of 0 is 0.528217
weight of 1 is -0.140020
weight of 2 is -14.933333
weight of 3 is 1.000000
used!
accept
accept
weight of 0 is -0.007369
weight of 1 is -0.157152
weight of 2 is -16.177778
weight of 3 is 0.000000
not used!
accept
accept
weight of 0 is 0.528007
weight of 1 is -0.136148
weight of 2 is -16.177778
weight of 3 is 1.000000
used!
weight of 0 is 1.063383
weight of 1 is -0.115144
weight of 2 is -16.177778
weight of 3 is 2.000000
used!
deny
deny
weight of 0 is 0.528007
weight of 1 is -0.132219
weight of 2 is -16.177778
weight of 3 is 1.000000
not used!
weight of 0 is -0.007534
weight of 1 is -0.145633
weight of 2 is -16.177778
weight of 3 is 0.000000
not used!
accept
accept
weight of 0 is -0.542910
weight of 1 is -0.158991
weight of 2 is -16.177778
weight of 3 is -1.000000
not used!
deny
deny
deny
deny
deny
deny
weight of 0 is -1.078846
weight of 1 is -0.204566
weight of 2 is -17.422222
weight of 3 is -2.000000
not used!
weight of 0 is -1.614223
weight of 1 is -0.250086
weight of 2 is -17.422222
weight of 3 is -3.000000
not used!
deny
deny
weight of 0 is -2.150158
weight of 1 is -0.295565
weight of 2 is -18.488889
weight of 3 is -4.000000
not used!
deny
deny
weight of 0 is -2.686093
weight of 1 is -0.295570
weight of 2 is -18.488889
weight of 3 is -5.000000
not used!
deny
deny
weight of 0 is -2.150717
weight of 1 is -0.286063
weight of 2 is -18.488889
weight of 3 is -4.000000
used!
weight of 0 is -1.615340
weight of 1 is -0.276557
weight of 2 is -18.488889
weight of 3 is -3.000000
used!
weight of 0 is -2.150717
weight of 1 is -0.296678
weight of 2 is -18.488889
weight of 3 is -4.000000
not used!
deny
deny
weight of 0 is -2.686093
weight of 1 is -0.337512
weight of 2 is -18.488889
weight of 3 is -5.000000
not used!
deny
deny
weight of 0 is -3.221469
weight of 1 is -0.364247
weight of 2 is -18.488889
weight of 3 is -6.000000
not used!
deny
deny
weight of 0 is -3.757347
weight of 1 is -0.378318
weight of 2 is -18.488889
weight of 3 is -7.000000
not used!
deny
deny
deny
deny
weight of 0 is -3.221971
weight of 1 is -0.362913
weight of 2 is -18.488889
weight of 3 is -6.000000
used!
weight of 0 is -2.686595
weight of 1 is -0.347507
weight of 2 is -18.488889
weight of 3 is -5.000000
used!
deny
deny
weight of 0 is -3.222529
weight of 1 is -0.392848
weight of 2 is -19.022222
weight of 3 is -6.000000
not used!
deny
deny
weight of 0 is -2.687153
weight of 1 is -0.388863
weight of 2 is -19.022222
weight of 3 is -5.000000
used!
weight of 0 is -2.151777
weight of 1 is -0.384877
weight of 2 is -19.022222
weight of 3 is -4.000000
used!
deny
deny
weight of 0 is -1.616401
weight of 1 is -0.367217
weight of 2 is -19.022222
weight of 3 is -3.000000
used!
weight of 0 is -1.081025
weight of 1 is -0.349557
weight of 2 is -19.022222
weight of 3 is -2.000000
used!
deny
deny
deny
deny
weight of 0 is -0.545649
weight of 1 is -0.331878
weight of 2 is -19.022222
weight of 3 is -1.000000
used!
weight of 0 is -0.010273
weight of 1 is -0.314200
weight of 2 is -19.022222
weight of 3 is 0.000000
used!
accept
accept
weight of 0 is 0.525104
weight of 1 is -0.310297
weight of 2 is -19.022222
weight of 3 is 1.000000
used!
weight of 0 is 1.060480
weight of 1 is -0.306394
weight of 2 is -19.022222
weight of 3 is 2.000000
used!
weight of 0 is 0.524680
weight of 1 is -0.340941
weight of 2 is -20.266667
weight of 3 is 1.000000
not used!
accept
accept
weight of 0 is -0.010742
weight of 1 is -0.353998
weight of 2 is -21.555556
weight of 3 is 0.000000
not used!
weight of 0 is -0.546118
weight of 1 is -0.357641
weight of 2 is -21.555556
weight of 3 is -1.000000
not used!
deny
deny
weight of 0 is -1.081918
weight of 1 is -0.374321
weight of 2 is -22.800000
weight of 3 is -2.000000
not used!
warn: ignoring syscall access(...)
deny
deny
weight of 0 is -1.617294
weight of 1 is -0.390983
weight of 2 is -22.800000
weight of 3 is -3.000000
not used!
deny
deny
deny
deny
weight of 0 is -1.081918
weight of 1 is -0.365170
weight of 2 is -22.800000
weight of 3 is -2.000000
used!
weight of 0 is -0.546542
weight of 1 is -0.339356
weight of 2 is -22.800000
weight of 3 is -1.000000
used!
deny
deny
weight of 0 is -1.081918
weight of 1 is -0.355306
weight of 2 is -22.800000
weight of 3 is -2.000000
not used!
deny
deny
deny
deny
weight of 0 is -1.617294
weight of 1 is -0.383750
weight of 2 is -22.800000
weight of 3 is -3.000000
not used!
deny
deny
weight of 0 is -1.081918
weight of 1 is -0.383731
weight of 2 is -22.800000
weight of 3 is -2.000000
used!
weight of 0 is -0.546542
weight of 1 is -0.383713
weight of 2 is -22.800000
weight of 3 is -1.000000
used!
deny
deny
deny
deny
weight of 0 is -1.081918
weight of 1 is -0.383769
weight of 2 is -22.800000
weight of 3 is -2.000000
not used!
deny
deny
deny
deny
weight of 0 is -0.546542
weight of 1 is -0.372234
weight of 2 is -22.800000
weight of 3 is -1.000000
used!
weight of 0 is -0.011166
weight of 1 is -0.360698
weight of 2 is -22.800000
weight of 3 is 0.000000
used!
accept
accept
weight of 0 is 0.524211
weight of 1 is -0.360679
weight of 2 is -22.800000
weight of 3 is 1.000000
used!
weight of 0 is 1.059587
weight of 1 is -0.360661
weight of 2 is -22.800000
weight of 3 is 2.000000
used!
accept
accept
accept
accept
accept
accept
weight of 0 is 0.523858
weight of 1 is -0.362247
weight of 2 is -22.800000
weight of 3 is 1.000000
not used!
weight of 0 is -0.011518
weight of 1 is -0.390898
weight of 2 is -22.800000
weight of 3 is 0.000000
not used!
accept
accept
weight of 0 is -0.546894
weight of 1 is -0.390916
weight of 2 is -22.800000
weight of 3 is -1.000000
not used!
deny
deny
weight of 0 is -1.082270
weight of 1 is -0.421410
weight of 2 is -22.800000
weight of 3 is -2.000000
not used!
deny
deny
deny
deny
weight of 0 is -1.618020
weight of 1 is -0.451961
weight of 2 is -22.977778
weight of 3 is -3.000000
not used!
deny
deny
weight of 0 is -2.153905
weight of 1 is -0.452963
weight of 2 is -24.133333
weight of 3 is -4.000000
not used!
weight of 0 is -2.689653
weight of 1 is -0.453833
weight of 2 is -24.311111
weight of 3 is -5.000000
not used!
deny
deny
deny
deny
weight of 0 is -2.154278
weight of 1 is -0.437002
weight of 2 is -24.311111
weight of 3 is -4.000000
used!
weight of 0 is -1.618901
weight of 1 is -0.420170
weight of 2 is -24.311111
weight of 3 is -3.000000
used!
weight of 0 is -2.154780
weight of 1 is -0.461028
weight of 2 is -25.377778
weight of 3 is -4.000000
not used!
deny
deny
deny
deny
weight of 0 is -1.619404
weight of 1 is -0.461009
weight of 2 is -25.377778
weight of 3 is -3.000000
used!
weight of 0 is -1.084027
weight of 1 is -0.460991
weight of 2 is -25.377778
weight of 3 is -2.000000
used!
deny
deny
weight of 0 is -0.548651
weight of 1 is -0.460972
weight of 2 is -25.377778
weight of 3 is -1.000000
used!
weight of 0 is -0.013275
weight of 1 is -0.460953
weight of 2 is -25.377778
weight of 3 is 0.000000
used!
deny
deny
deny
deny
weight of 0 is 0.522101
weight of 1 is 3.087236
weight of 2 is -25.377778
weight of 3 is 1.000000
used!
weight of 0 is 1.057477
weight of 1 is 6.635425
weight of 2 is -25.377778
weight of 3 is 2.000000
used!
accept
accept
weight of 0 is 0.565364
weight of 1 is 3.113991
weight of 2 is -26.622222
weight of 3 is 1.000000
not used!
accept
accept
deny
deny
weight of 0 is 0.029988
weight of 1 is -0.407424
weight of 2 is -26.622222
weight of 3 is 0.000000
not used!
weight of 0 is -0.462133
weight of 1 is -3.928921
weight of 2 is -27.333333
weight of 3 is -1.000000
not used!
weight of 0 is -0.954246
weight of 1 is -3.928933
weight of 2 is -27.511111
weight of 3 is -2.000000
not used!
deny
deny
weight of 0 is -1.446359
weight of 1 is -3.928949
weight of 2 is -27.511111
weight of 3 is -3.000000
not used!
weight of 0 is -1.938480
weight of 1 is -3.928968
weight of 2 is -27.511111
weight of 3 is -4.000000
not used!
deny
deny
deny
deny
deny
deny
weight of 0 is -2.473857
weight of 1 is -3.957149
weight of 2 is -27.511111
weight of 3 is -5.000000
not used!
weight of 0 is -3.008859
weight of 1 is -3.987600
weight of 2 is -27.777778
weight of 3 is -6.000000
not used!
deny
deny
deny
deny
deny
deny
deny
deny
weight of 0 is -2.473482
weight of 1 is -3.982227
weight of 2 is -27.777778
weight of 3 is -5.000000
used!
weight of 0 is -1.938106
weight of 1 is -3.976853
weight of 2 is -27.777778
weight of 3 is -4.000000
used!
deny
deny
deny
deny
deny
deny
weight of 0 is -2.469103
weight of 1 is -4.333340
weight of 2 is -27.955556
weight of 3 is -5.000000
not used!
deny
deny
deny
deny
deny
deny
weight of 0 is -1.933727
weight of 1 is -4.305906
weight of 2 is -27.955556
weight of 3 is -4.000000
used!
weight of 0 is -1.398351
weight of 1 is -4.278471
weight of 2 is -27.955556
weight of 3 is -3.000000
used!
deny
deny
deny
deny
weight of 0 is -1.933727
weight of 1 is -4.635859
weight of 2 is -27.955556
weight of 3 is -4.000000
not used!
deny
deny
weight of 0 is -1.398351
weight of 1 is -4.626278
weight of 2 is -27.955556
weight of 3 is -3.000000
used!
weight of 0 is -0.862975
weight of 1 is -4.616696
weight of 2 is -27.955556
weight of 3 is -2.000000
used!
deny
deny
deny
deny
weight of 0 is -1.393973
weight of 1 is -4.974028
weight of 2 is -28.133333
weight of 3 is -3.000000
not used!
deny
deny
weight of 0 is -0.858597
weight of 1 is -4.974009
weight of 2 is -28.133333
weight of 3 is -2.000000
used!
weight of 0 is -0.323220
weight of 1 is -4.973991
weight of 2 is -28.133333
weight of 3 is -1.000000
used!
deny
deny
weight of 0 is -0.859096
weight of 1 is -5.371027
weight of 2 is -28.666667
weight of 3 is -2.000000
not used!
deny
deny
weight of 0 is -0.323720
weight of 1 is -5.333342
weight of 2 is -28.666667
weight of 3 is -1.000000
used!
weight of 0 is 0.211656
weight of 1 is -5.295657
weight of 2 is -28.666667
weight of 3 is 0.000000
used!
accept
accept
accept
accept
weight of 0 is 0.747033
weight of 1 is -5.295638
weight of 2 is -28.666667
weight of 3 is 1.000000
used!
weight of 0 is 1.282409
weight of 1 is -5.295619
weight of 2 is -28.666667
weight of 3 is 2.000000
used!
accept
accept
weight of 0 is 0.746656
weight of 1 is -5.336681
weight of 2 is -29.555556
weight of 3 is 1.000000
not used!
weight of 0 is 0.210903
weight of 1 is -5.336704
weight of 2 is -30.711111
weight of 3 is 0.000000
not used!
weight of 0 is -0.324621
weight of 1 is -5.336793
weight of 2 is -31.600000
weight of 3 is -1.000000
not used!
deny
deny
weight of 0 is -0.859997
weight of 1 is -5.367409
weight of 2 is -31.600000
weight of 3 is -2.000000
not used!
weight of 0 is -1.395753
weight of 1 is -5.398345
weight of 2 is -32.511111
weight of 3 is -3.000000
not used!
deny
deny
weight of 0 is -1.931654
weight of 1 is -5.441046
weight of 2 is -33.755556
weight of 3 is -4.000000
not used!
deny
deny
weight of 0 is -1.396278
weight of 1 is -5.440783
weight of 2 is -33.755556
weight of 3 is -3.000000
used!
weight of 0 is -0.860902
weight of 1 is -5.440520
weight of 2 is -33.755556
weight of 3 is -2.000000
used!
deny
deny
deny
deny
deny
deny
weight of 0 is -1.396278
weight of 1 is -5.440990
weight of 2 is -33.755556
weight of 3 is -3.000000
not used!
deny
deny
deny
deny
weight of 0 is -0.860902
weight of 1 is -5.440934
weight of 2 is -33.755556
weight of 3 is -2.000000
used!
weight of 0 is -0.325526
weight of 1 is -5.440877
weight of 2 is -33.755556
weight of 3 is -1.000000
used!
deny
deny
deny
deny
weight of 0 is 0.209850
weight of 1 is -5.440708
weight of 2 is -33.755556
weight of 3 is 0.000000
used!
weight of 0 is 0.745226
weight of 1 is -5.440539
weight of 2 is -33.755556
weight of 3 is 1.000000
used!
accept
accept
accept
accept
weight of 0 is 1.280603
weight of 1 is -5.440520
weight of 2 is -33.755556
weight of 3 is 2.000000
used!
weight of 0 is 1.815979
weight of 1 is -5.440501
weight of 2 is -33.755556
weight of 3 is 3.000000
used!
accept
accept
deny
deny
deny
deny
weight of 0 is 1.280103
weight of 1 is -5.481162
weight of 2 is -34.111111
weight of 3 is 2.000000
not used!
accept
accept
deny
deny
weight of 0 is 0.744228
weight of 1 is -5.521747
weight of 2 is -34.466667
weight of 3 is 1.000000
not used!
deny
deny
accept
accept
accept
accept
weight of 0 is 0.208852
weight of 1 is -5.562276
weight of 2 is -34.466667
weight of 3 is 0.000000
not used!
accept
accept
accept
accept
accept
accept
deny
deny
accept
accept
deny
deny
accept
accept
accept
accept
deny
deny
accept
accept
deny
deny
accept
accept
accept
accept
accept
accept
accept
accept
accept
accept
accept
accept
deny
deny
accept
accept
deny
deny
accept
accept
deny
deny
deny
deny
deny
deny
deny
deny
deny
deny
deny
deny
deny
deny
accept
accept
deny
deny
weight of 0 is -0.326524
weight of 1 is -5.562370
weight of 2 is -34.466667
weight of 3 is -1.000000
not used!
deny
deny
deny
deny
deny
deny
deny
deny
weight of 0 is 0.209182
weight of 1 is -5.555841
weight of 2 is -34.022222
weight of 3 is 0.000000
used!
weight of 0 is 0.744888
weight of 1 is -5.549313
weight of 2 is -33.577778
weight of 3 is 1.000000
used!
deny
deny
accept
accept
accept
accept
accept
accept
accept
accept
deny
deny
weight of 0 is 1.280618
weight of 1 is -5.537351
weight of 2 is -32.511111
weight of 3 is 2.000000
used!
weight of 0 is 1.816349
weight of 1 is -5.525389
weight of 2 is -31.444444
weight of 3 is 3.000000
used!
accept
accept
accept
accept
accept
accept
deny
deny
accept
accept
accept
accept
accept
accept
accept
accept
weight of 0 is 1.280972
weight of 1 is -5.526291
weight of 2 is -31.444444
weight of 3 is 2.000000
not used!
deny
deny
accept
accept
accept
accept
weight of 0 is 1.816855
weight of 1 is -5.485126
weight of 2 is -31.311111
weight of 3 is 3.000000
used!
weight of 0 is 2.352738
weight of 1 is -5.443962
weight of 2 is -31.177778
weight of 3 is 4.000000
used!
deny
deny
weight of 0 is 2.888573
weight of 1 is -5.424172
weight of 2 is -30.644444
weight of 3 is 5.000000
used!
weight of 0 is 3.424408
weight of 1 is -5.404382
weight of 2 is -30.111111
weight of 3 is 6.000000
used!
deny
deny
deny
deny
weight of 0 is 3.960292
weight of 1 is -5.404349
weight of 2 is -29.044444
weight of 3 is 7.000000
used!
weight of 0 is 4.496175
weight of 1 is -5.404316
weight of 2 is -27.977778
weight of 3 is 8.000000
used!
deny
deny
weight of 0 is 5.032059
weight of 1 is -5.404299
weight of 2 is -27.088889
weight of 3 is 9.000000
used!
weight of 0 is 5.567943
weight of 1 is -5.404283
weight of 2 is -26.200000
weight of 3 is 10.000000
used!
accept
accept
deny
deny
accept
accept
accept
accept
weight of 0 is 6.103827
weight of 1 is -5.404267
weight of 2 is -25.488889
weight of 3 is 11.000000
used!
weight of 0 is 6.639711
weight of 1 is -5.404250
weight of 2 is -24.777778
weight of 3 is 12.000000
used!
accept
accept
accept
accept
accept
accept
accept
accept
deny
deny
weight of 0 is 6.104335
weight of 1 is -5.404419
weight of 2 is -24.777778
weight of 3 is 11.000000
not used!
deny
deny
deny
deny
deny
deny
weight of 0 is 6.640146
weight of 1 is -5.402827
weight of 2 is -24.066667
weight of 3 is 12.000000
used!
weight of 0 is 7.175958
weight of 1 is -5.401235
weight of 2 is -23.355556
weight of 3 is 13.000000
used!
deny
deny
deny
deny
weight of 0 is 7.711769
weight of 1 is -5.401215
weight of 2 is -22.288889
weight of 3 is 14.000000
used!
weight of 0 is 8.247580
weight of 1 is -5.401195
weight of 2 is -21.222222
weight of 3 is 15.000000
used!
accept
accept
weight of 0 is 8.783392
weight of 1 is -5.401173
weight of 2 is -20.244444
weight of 3 is 16.000000
used!
weight of 0 is 9.319204
weight of 1 is -5.401150
weight of 2 is -19.266667
weight of 3 is 17.000000
used!
weight of 0 is 8.783828
weight of 1 is -5.401263
weight of 2 is -19.266667
weight of 3 is 16.000000
not used!
accept
accept
accept
accept
accept
accept
accept
accept
accept
accept
weight of 0 is 8.248451
weight of 1 is -5.418061
weight of 2 is -19.266667
weight of 3 is 15.000000
not used!
weight of 0 is 7.713075
weight of 1 is -5.443424
weight of 2 is -19.266667
weight of 3 is 14.000000
not used!
weight of 0 is 7.177362
weight of 1 is -5.485601
weight of 2 is -19.266667
weight of 3 is 13.000000
not used!
weight of 0 is 6.641986
weight of 1 is -5.502303
weight of 2 is -19.266667
weight of 3 is 12.000000
not used!
weight of 0 is 6.106610
weight of 1 is -5.513012
weight of 2 is -19.266667
weight of 3 is 11.000000
not used!
deny
deny
accept
accept
accept
accept
accept
accept
deny
deny
weight of 0 is 6.642421
weight of 1 is -5.512957
weight of 2 is -18.466667
weight of 3 is 12.000000
used!
weight of 0 is 7.178232
weight of 1 is -5.512902
weight of 2 is -17.666667
weight of 3 is 13.000000
used!
accept
accept
accept
accept
deny
deny
accept
accept
weight of 0 is 6.642856
weight of 1 is -5.516614
weight of 2 is -17.666667
weight of 3 is 12.000000
not used!
weight of 0 is 6.107479
weight of 1 is -5.541195
weight of 2 is -17.666667
weight of 3 is 11.000000
not used!
weight of 0 is 5.572103
weight of 1 is -5.541214
weight of 2 is -17.666667
weight of 3 is 10.000000
not used!
accept
accept
warn: ignoring syscall mprotect(...)
accept
accept
deny
deny
weight of 0 is 5.036727
weight of 1 is -5.541327
weight of 2 is -17.666667
weight of 3 is 9.000000
not used!
accept
accept
weight of 0 is 4.501306
weight of 1 is -5.544783
weight of 2 is -17.666667
weight of 3 is 8.000000
not used!
accept
accept
accept
accept
deny
deny
accept
accept
accept
accept
accept
accept
weight of 0 is 3.965930
weight of 1 is -5.579512
weight of 2 is -17.666667
weight of 3 is 7.000000
not used!
accept
accept
accept
accept
deny
deny
accept
accept
accept
accept
accept
accept
weight of 0 is 3.430553
weight of 1 is -5.579700
weight of 2 is -17.666667
weight of 3 is 6.000000
not used!
accept
accept
accept
accept
weight of 0 is 2.895177
weight of 1 is -5.579757
weight of 2 is -17.666667
weight of 3 is 5.000000
not used!
deny
deny
accept
accept
accept
accept
accept
accept
accept
accept
accept
accept
deny
deny
weight of 0 is 2.359771
weight of 1 is -5.607374
weight of 2 is -17.666667
weight of 3 is 4.000000
not used!
weight of 0 is 1.824395
weight of 1 is -5.635160
weight of 2 is -17.666667
weight of 3 is 3.000000
not used!
weight of 0 is 1.289019
weight of 1 is -5.676344
weight of 2 is -17.666667
weight of 3 is 2.000000
not used!
weight of 0 is 0.753136
weight of 1 is -5.717563
weight of 2 is -17.666667
weight of 3 is 1.000000
not used!
deny
deny
accept
accept
weight of 0 is 0.217569
weight of 1 is -5.727769
weight of 2 is -17.666667
weight of 3 is 0.000000
not used!
deny
deny
weight of 0 is -0.318003
weight of 1 is -5.728089
weight of 2 is -17.666667
weight of 3 is -1.000000
not used!
deny
deny
deny
deny
weight of 0 is -0.853379
weight of 1 is -5.743757
weight of 2 is -17.666667
weight of 3 is -2.000000
not used!
deny
deny
deny
deny
deny
deny
deny
deny
deny
deny
deny
deny
deny
deny
deny
deny
deny
deny
deny
deny
deny
deny
deny
deny
weight of 0 is -0.317655
weight of 1 is -5.735650
weight of 2 is -17.222222
weight of 3 is -1.000000
used!
weight of 0 is 0.218069
weight of 1 is -5.727544
weight of 2 is -16.777778
weight of 3 is 0.000000
used!
deny
deny
deny
deny
deny
deny
weight of 0 is 0.753898
weight of 1 is -5.719176
weight of 2 is -15.755556
weight of 3 is 1.000000
used!
weight of 0 is 1.289727
weight of 1 is -5.710808
weight of 2 is -14.733333
weight of 3 is 2.000000
used!
deny
deny
deny
deny
weight of 0 is 0.753915
weight of 1 is -5.710832
weight of 2 is -15.088889
weight of 3 is 1.000000
not used!
weight of 0 is 0.218331
weight of 1 is -5.710922
weight of 2 is -15.088889
weight of 3 is 0.000000
not used!
weight of 0 is -0.317045
weight of 1 is -5.752648
weight of 2 is -15.088889
weight of 3 is -1.000000
not used!
weight of 0 is -0.852421
weight of 1 is -5.792376
weight of 2 is -15.088889
weight of 3 is -2.000000
not used!
weight of 0 is -1.388286
weight of 1 is -5.832111
weight of 2 is -15.088889
weight of 3 is -3.000000
not used!
weight of 0 is -1.924149
weight of 1 is -5.871708
weight of 2 is -15.977778
weight of 3 is -4.000000
not used!
deny
deny
deny
deny
deny
deny
weight of 0 is -1.388332
weight of 1 is -2.305348
weight of 2 is -15.088889
weight of 3 is -3.000000
used!
weight of 0 is -0.852516
weight of 1 is 1.261011
weight of 2 is -14.200000
weight of 3 is -2.000000
used!
weight of 0 is -1.387892
weight of 1 is 1.238260
weight of 2 is -14.200000
weight of 3 is -3.000000
not used!
deny
deny
deny
deny
weight of 0 is -0.852077
weight of 1 is 1.238280
weight of 2 is -12.955556
weight of 3 is -2.000000
used!
weight of 0 is -0.316262
weight of 1 is 1.238300
weight of 2 is -11.711111
weight of 3 is -1.000000
used!
deny
deny
weight of 0 is 0.219554
weight of 1 is 1.238322
weight of 2 is -10.555556
weight of 3 is 0.000000
used!
weight of 0 is 0.755371
weight of 1 is 1.238344
weight of 2 is -9.400000
weight of 3 is 1.000000
used!
accept
accept
deny
deny
weight of 0 is 0.219995
weight of 1 is 1.237217
weight of 2 is -9.400000
weight of 3 is 0.000000
not used!
deny
deny
weight of 0 is 0.755810
weight of 1 is 1.237272
weight of 2 is -8.422222
weight of 3 is 1.000000
used!
weight of 0 is 1.291625
weight of 1 is 1.237327
weight of 2 is -7.444444
weight of 3 is 2.000000
used!
deny
deny
weight of 0 is 1.827442
weight of 1 is 1.237352
weight of 2 is -6.911111
weight of 3 is 3.000000
used!
weight of 0 is 2.363258
weight of 1 is 1.237377
weight of 2 is -6.377778
weight of 3 is 4.000000
used!
weight of 0 is 1.816058
weight of 1 is 1.237364
weight of 2 is -6.377778
weight of 3 is 3.000000
not used!
deny
deny
deny
deny
warn: ignoring syscall mprotect(...)
accept
accept
accept
accept
weight of 0 is 1.280177
weight of 1 is 0.291744
weight of 2 is -6.377778
weight of 3 is 2.000000
not used!
accept
accept
accept
accept
accept
accept
accept
accept
weight of 0 is 0.744801
weight of 1 is 0.291481
weight of 2 is -6.377778
weight of 3 is 1.000000
not used!
accept
accept
accept
accept
accept
accept
accept
accept
weight of 0 is 0.209425
weight of 1 is 0.231845
weight of 2 is -6.377778
weight of 3 is 0.000000
not used!
weight of 0 is -0.325951
weight of 1 is 0.231281
weight of 2 is -6.377778
weight of 3 is -1.000000
not used!
deny
deny
deny
deny
deny
deny
weight of 0 is -0.861327
weight of 1 is 0.223766
weight of 2 is -6.377778
weight of 3 is -2.000000
not used!
deny
deny
deny
deny
deny
deny
deny
deny
deny
deny
weight of 0 is -0.299386
weight of 1 is 0.226453
weight of 2 is -6.377778
weight of 3 is -1.000000
used!
weight of 0 is 0.262556
weight of 1 is 0.229140
weight of 2 is -6.377778
weight of 3 is 0.000000
used!
weight of 0 is -0.272820
weight of 1 is 0.229083
weight of 2 is -6.377778
weight of 3 is -1.000000
not used!
deny
deny
weight of 0 is 0.289121
weight of 1 is 2.350050
weight of 2 is -6.377778
weight of 3 is 0.000000
used!
weight of 0 is 0.851063
weight of 1 is 4.471016
weight of 2 is -6.377778
weight of 3 is 1.000000
used!
accept
accept
weight of 0 is 1.413005
weight of 1 is 6.592039
weight of 2 is -6.377778
weight of 3 is 2.000000
used!
weight of 0 is 1.974947
weight of 1 is 8.713062
weight of 2 is -6.377778
weight of 3 is 3.000000
used!
accept
accept
weight of 0 is 2.536889
weight of 1 is 8.713081
weight of 2 is -6.377778
weight of 3 is 4.000000
used!
weight of 0 is 3.098831
weight of 1 is 8.713100
weight of 2 is -6.377778
weight of 3 is 5.000000
used!
accept
accept
accept
accept
weight of 0 is 3.634714
weight of 1 is 10.834064
weight of 2 is -5.844444
weight of 3 is 6.000000
used!
weight of 0 is 4.170598
weight of 1 is 12.955028
weight of 2 is -5.311111
weight of 3 is 7.000000
used!
accept
accept
accept
accept
accept
accept
accept
accept
weight of 0 is 3.678526
weight of 1 is 12.955028
weight of 2 is -5.311111
weight of 3 is 6.000000
not used!
accept
accept
accept
accept
accept
accept
accept
accept
accept
accept
accept
accept
accept
accept
accept
accept
accept
accept
accept
accept
accept
accept
accept
accept
accept
accept
accept
accept
accept
accept
accept
accept
accept
accept
accept
accept
accept
accept
accept
accept
accept
accept
accept
accept
accept
accept
accept
accept
accept
accept
accept
accept
accept
accept
accept
accept
weight of 0 is 3.142938
weight of 1 is 12.954941
weight of 2 is -5.311111
weight of 3 is 5.000000
not used!
accept
accept
accept
accept
accept
accept
accept
accept
accept
accept
accept
accept
accept
accept
accept
accept
accept
accept
accept
accept
accept
accept
accept
accept
accept
accept
accept
accept
accept
accept
accept
accept
accept
accept
accept
accept
accept
accept
accept
accept
accept
accept
weight of 0 is 2.580996
weight of 1 is 12.954922
weight of 2 is -5.311111
weight of 3 is 4.000000
not used!
weight of 0 is 2.019053
weight of 1 is 12.954903
weight of 2 is -5.311111
weight of 3 is 3.000000
not used!
weight of 0 is 1.457111
weight of 1 is 12.954884
weight of 2 is -5.311111
weight of 3 is 2.000000
not used!
weight of 0 is 0.921226
weight of 1 is 10.833840
weight of 2 is -5.488889
weight of 3 is 1.000000
not used!
weight of 0 is 0.385850
weight of 1 is 10.792788
weight of 2 is -5.488889
weight of 3 is 0.000000
not used!
accept
accept
weight of 0 is -0.161597
weight of 1 is 9.804992
weight of 2 is -6.733333
weight of 3 is -1.000000
not used!
weight of 0 is -0.709045
weight of 1 is 9.804990
weight of 2 is -6.733333
weight of 3 is -2.000000
not used!
deny
deny
deny
deny
deny
deny
deny
deny
accept
accept
deny
deny
accept
accept
accept
accept
deny
deny
deny
deny
deny
deny
deny
deny
weight of 0 is -0.147153
weight of 1 is 9.805119
weight of 2 is -6.733333
weight of 3 is -1.000000
used!
weight of 0 is 0.414740
weight of 1 is 9.805248
weight of 2 is -6.733333
weight of 3 is 0.000000
used!
accept
accept
weight of 0 is 0.976633
weight of 1 is 9.805267
weight of 2 is -6.733333
weight of 3 is 1.000000
used!
weight of 0 is 1.538526
weight of 1 is 9.805286
weight of 2 is -6.733333
weight of 3 is 2.000000
used!
accept
accept
accept
accept
weight of 0 is 1.003149
weight of 1 is 9.804873
weight of 2 is -6.733333
weight of 3 is 1.000000
not used!
deny
deny
accept
accept
accept
accept
accept
accept
accept
accept
accept
accept
accept
accept
accept
accept
accept
accept
accept
accept
weight of 0 is 0.467773
weight of 1 is 9.790444
weight of 2 is -6.733333
weight of 3 is 0.000000
not used!
accept
accept
accept
accept
weight of 0 is -0.068004
weight of 1 is 9.772901
weight of 2 is -7.800000
weight of 3 is -1.000000
not used!
weight of 0 is -0.603781
weight of 1 is 9.772887
weight of 2 is -8.511111
weight of 3 is -2.000000
not used!
deny
deny
deny
deny
deny
deny
weight of 0 is -0.041883
weight of 1 is 9.772944
weight of 2 is -8.511111
weight of 3 is -1.000000
used!
weight of 0 is 0.520016
weight of 1 is 9.773000
weight of 2 is -8.511111
weight of 3 is 0.000000
used!
accept
accept
weight of 0 is 1.081915
weight of 1 is 9.773019
weight of 2 is -8.511111
weight of 3 is 1.000000
used!
weight of 0 is 1.643813
weight of 1 is 9.773038
weight of 2 is -8.511111
weight of 3 is 2.000000
used!
accept
accept
accept
accept
accept
accept
weight of 0 is 1.108212
weight of 1 is 9.772068
weight of 2 is -9.755556
weight of 3 is 1.000000
not used!
accept
accept
accept
accept
weight of 0 is 0.560651
weight of 1 is 8.616078
weight of 2 is -10.511111
weight of 3 is 0.000000
not used!
accept
accept
accept
accept
accept
accept
weight of 0 is 0.025275
weight of 1 is 8.616021
weight of 2 is -10.511111
weight of 3 is -1.000000
not used!
deny
deny
deny
deny
deny
deny
weight of 0 is 0.560651
weight of 1 is 8.616923
weight of 2 is -10.511111
weight of 3 is 0.000000
used!
weight of 0 is 1.096027
weight of 1 is 8.617825
weight of 2 is -10.511111
weight of 3 is 1.000000
used!
weight of 0 is 0.560651
weight of 1 is 6.455709
weight of 2 is -10.511111
weight of 3 is 0.000000
not used!
accept
accept
weight of 0 is 1.096027
weight of 1 is 6.455728
weight of 2 is -10.511111
weight of 3 is 1.000000
used!
weight of 0 is 1.631403
weight of 1 is 6.455747
weight of 2 is -10.511111
weight of 3 is 2.000000
used!
accept
accept
accept
accept
weight of 0 is 1.096027
weight of 1 is 6.455165
weight of 2 is -10.511111
weight of 3 is 1.000000
not used!
weight of 0 is 0.560651
weight of 1 is 6.455127
weight of 2 is -10.511111
weight of 3 is 0.000000
not used!
accept
accept
weight of 0 is 0.025275
weight of 1 is 6.454845
weight of 2 is -10.511111
weight of 3 is -1.000000
not used!
weight of 0 is -0.510101
weight of 1 is 6.448683
weight of 2 is -10.511111
weight of 3 is -2.000000
not used!
weight of 0 is -1.045902
weight of 1 is 6.426892
weight of 2 is -11.755556
weight of 3 is -3.000000
not used!
deny
deny
weight of 0 is -1.581702
weight of 1 is 6.426890
weight of 2 is -11.755556
weight of 3 is -4.000000
not used!
deny
deny
deny
deny
deny
deny
weight of 0 is -1.046326
weight of 1 is 6.428148
weight of 2 is -11.755556
weight of 3 is -3.000000
used!
weight of 0 is -0.510950
weight of 1 is 6.429407
weight of 2 is -11.755556
weight of 3 is -2.000000
used!
deny
deny
weight of 0 is 0.024426
weight of 1 is 6.429426
weight of 2 is -11.755556
weight of 3 is -1.000000
used!
weight of 0 is 0.559802
weight of 1 is 6.429445
weight of 2 is -11.755556
weight of 3 is 0.000000
used!
accept
accept
accept
accept
weight of 0 is 1.095179
weight of 1 is 6.429464
weight of 2 is -11.755556
weight of 3 is 1.000000
used!
weight of 0 is 1.630555
weight of 1 is 6.429482
weight of 2 is -11.755556
weight of 3 is 2.000000
used!
weight of 0 is 1.095179
weight of 1 is 6.429445
weight of 2 is -11.755556
weight of 3 is 1.000000
not used!
accept
accept
accept
accept
weight of 0 is 0.559802
weight of 1 is 6.428674
weight of 2 is -11.755556
weight of 3 is 0.000000
not used!
accept
accept
weight of 0 is 0.024426
weight of 1 is 6.415260
weight of 2 is -11.755556
weight of 3 is -1.000000
not used!
accept
accept
deny
deny
deny
deny
weight of 0 is -0.510950
weight of 1 is 6.398408
weight of 2 is -11.755556
weight of 3 is -2.000000
not used!
deny
deny
weight of 0 is 0.036840
weight of 1 is 6.398429
weight of 2 is -11.400000
weight of 3 is -1.000000
used!
weight of 0 is 0.584630
weight of 1 is 6.398450
weight of 2 is -11.044444
weight of 3 is 0.000000
used!
deny
deny
weight of 0 is 1.132421
weight of 1 is 6.398465
weight of 2 is -11.044444
weight of 3 is 1.000000
used!
weight of 0 is 1.680211
weight of 1 is 6.398479
weight of 2 is -11.044444
weight of 3 is 2.000000
used!
accept
accept
weight of 0 is 2.228002
weight of 1 is 6.398500
weight of 2 is -10.866667
weight of 3 is 3.000000
used!
weight of 0 is 2.775793
weight of 1 is 6.398521
weight of 2 is -10.688889
weight of 3 is 4.000000
used!
accept
accept
weight of 0 is 3.323584
weight of 1 is 6.398542
weight of 2 is -10.333333
weight of 3 is 5.000000
used!
weight of 0 is 3.871375
weight of 1 is 6.398563
weight of 2 is -9.977778
weight of 3 is 6.000000
used!
accept
accept
accept
accept
accept
accept
accept
accept
accept
accept
accept
accept
weight of 0 is 3.335999
weight of 1 is 2.861195
weight of 2 is -9.977778
weight of 3 is 5.000000
not used!
accept
accept
accept
accept
accept
accept
accept
accept
accept
accept
accept
accept
weight of 0 is 2.800623
weight of 1 is 2.861139
weight of 2 is -9.977778
weight of 3 is 4.000000
not used!
accept
accept
weight of 0 is 2.308836
weight of 1 is -0.675979
weight of 2 is -10.022222
weight of 3 is 3.000000
not used!
accept
accept
weight of 0 is 1.772993
weight of 1 is -4.240976
weight of 2 is -11.266667
weight of 3 is 2.000000
not used!
accept
accept
accept
accept
deny
deny
weight of 0 is 1.237616
weight of 1 is -4.268985
weight of 2 is -11.266667
weight of 3 is 1.000000
not used!
deny
deny
deny
deny
weight of 0 is 1.785412
weight of 1 is -3.127738
weight of 2 is -10.911111
weight of 3 is 2.000000
used!
weight of 0 is 2.333208
weight of 1 is -1.986490
weight of 2 is -10.555556
weight of 3 is 3.000000
used!
weight of 0 is 1.785496
weight of 1 is -2.990647
weight of 2 is -11.622222
weight of 3 is 2.000000
not used!
accept
accept
deny
deny
accept
accept
weight of 0 is 2.333292
weight of 1 is -2.990612
weight of 2 is -11.444444
weight of 3 is 3.000000
used!
weight of 0 is 2.881089
weight of 1 is -2.990576
weight of 2 is -11.266667
weight of 3 is 4.000000
used!
accept
accept
weight of 0 is 3.428885
weight of 1 is -1.849366
weight of 2 is -10.911111
weight of 3 is 5.000000
used!
weight of 0 is 3.976682
weight of 1 is -0.708157
weight of 2 is -10.555556
weight of 3 is 6.000000
used!
accept
accept
accept
accept
accept
accept
accept
accept
accept
accept
weight of 0 is 3.429121
weight of 1 is -0.709666
weight of 2 is -11.600000
weight of 3 is 5.000000
not used!
weight of 0 is 2.893745
weight of 1 is -1.715926
weight of 2 is -11.600000
weight of 3 is 4.000000
not used!
accept
accept
accept
accept
accept
accept
accept
accept
accept
accept
accept
accept
accept
accept
accept
accept
accept
accept
accept
accept
accept
accept
weight of 0 is 2.358368
weight of 1 is -1.715983
weight of 2 is -11.600000
weight of 3 is 3.000000
not used!
accept
accept
deny
deny
accept
accept
accept
accept
weight of 0 is 2.906170
weight of 1 is -1.715962
weight of 2 is -11.244444
weight of 3 is 4.000000
used!
weight of 0 is 3.453973
weight of 1 is -1.715940
weight of 2 is -10.888889
weight of 3 is 5.000000
used!
accept
accept
accept
accept
accept
accept
accept
accept
accept
accept
accept
accept
accept
accept
accept
accept
accept
accept
accept
accept
accept
accept
accept
accept
accept
accept
accept
accept
weight of 0 is 2.918596
weight of 1 is -3.890399
weight of 2 is -10.888889
weight of 3 is 4.000000
not used!
accept
accept
accept
accept
accept
accept
accept
accept
accept
accept
accept
accept
weight of 0 is 2.383220
weight of 1 is -3.934749
weight of 2 is -10.888889
weight of 3 is 3.000000
not used!
weight of 0 is 1.847315
weight of 1 is -3.977755
weight of 2 is -11.066667
weight of 3 is 2.000000
not used!
deny
deny
accept
accept
weight of 0 is 1.311939
weight of 1 is -3.977812
weight of 2 is -11.066667
weight of 3 is 1.000000
not used!
accept
accept
weight of 0 is 1.859747
weight of 1 is -2.837165
weight of 2 is -10.711111
weight of 3 is 2.000000
used!
weight of 0 is 2.407556
weight of 1 is -1.696519
weight of 2 is -10.355556
weight of 3 is 3.000000
used!
accept
accept
accept
accept
accept
accept
accept
accept
accept
accept
weight of 0 is 1.845676
weight of 1 is -3.853790
weight of 2 is -10.533333
weight of 3 is 2.000000
not used!
deny
deny
accept
accept
accept
accept
weight of 0 is 2.393487
weight of 1 is -3.853768
weight of 2 is -10.177778
weight of 3 is 3.000000
used!
weight of 0 is 2.941297
weight of 1 is -3.853747
weight of 2 is -9.822222
weight of 3 is 4.000000
used!
accept
accept
accept
accept
accept
accept
accept
accept
accept
accept
accept
accept
accept
accept
accept
accept
accept
accept
accept
accept
accept
accept
accept
accept
accept
accept
accept
accept
accept
accept
deny
deny
deny
deny
weight of 0 is 3.503122
weight of 1 is -2.713374
weight of 2 is -9.288889
weight of 3 is 5.000000
used!
weight of 0 is 4.064947
weight of 1 is -1.573000
weight of 2 is -8.755556
weight of 3 is 6.000000
used!
accept
accept
accept
accept
accept
accept
accept
accept
accept
accept
accept
accept
weight of 0 is 3.503044
weight of 1 is -1.573056
weight of 2 is -8.755556
weight of 3 is 5.000000
not used!
accept
accept
weight of 0 is 2.941141
weight of 1 is -1.573094
weight of 2 is -8.755556
weight of 3 is 4.000000
not used!
accept
accept
accept
accept
weight of 0 is 2.405765
weight of 1 is -3.749093
weight of 2 is -8.755556
weight of 3 is 3.000000
not used!
accept
accept
accept
accept
accept
accept
accept
accept
deny
deny
accept
accept
weight of 0 is 2.953583
weight of 1 is -2.608860
weight of 2 is -8.400000
weight of 3 is 4.000000
used!
weight of 0 is 3.501402
weight of 1 is -1.468627
weight of 2 is -8.044444
weight of 3 is 5.000000
used!
accept
accept
accept
accept
accept
accept
accept
accept
accept
accept
accept
accept
weight of 0 is 2.966026
weight of 1 is -1.476555
weight of 2 is -8.044444
weight of 3 is 4.000000
not used!
accept
accept
accept
accept
accept
accept
accept
accept
accept
accept
accept
accept
accept
accept
accept
accept
accept
accept
accept
accept
accept
accept
accept
accept
accept
accept
accept
accept
weight of 0 is 2.430650
weight of 1 is -1.476875
weight of 2 is -8.044444
weight of 3 is 3.000000
not used!
accept
accept
accept
accept
weight of 0 is 1.895274
weight of 1 is -1.477175
weight of 2 is -8.044444
weight of 3 is 2.000000
not used!
accept
accept
weight of 0 is 1.359897
weight of 1 is -1.477232
weight of 2 is -8.044444
weight of 3 is 1.000000
not used!
deny
deny
accept
accept
accept
accept
deny
deny
weight of 0 is 1.907723
weight of 1 is -1.477210
weight of 2 is -7.688889
weight of 3 is 2.000000
used!
weight of 0 is 2.455549
weight of 1 is -1.477189
weight of 2 is -7.333333
weight of 3 is 3.000000
used!
accept
accept
weight of 0 is 3.003375
weight of 1 is -0.337273
weight of 2 is -7.155556
weight of 3 is 4.000000
used!
weight of 0 is 3.551201
weight of 1 is 0.802643
weight of 2 is -6.977778
weight of 3 is 5.000000
used!
accept
accept
accept
accept
accept
accept
accept
accept
weight of 0 is 3.003411
weight of 1 is -0.338974
weight of 2 is -7.155556
weight of 3 is 4.000000
not used!
accept
accept
accept
accept
accept
accept
weight of 0 is 2.455620
weight of 1 is -0.338988
weight of 2 is -7.155556
weight of 3 is 3.000000
not used!
accept
accept
weight of 0 is 1.907829
weight of 1 is -0.339009
weight of 2 is -7.333333
weight of 3 is 2.000000
not used!
accept
accept
accept
accept
weight of 0 is 1.360037
weight of 1 is -0.339030
weight of 2 is -7.688889
weight of 3 is 1.000000
not used!
accept
accept
deny
deny
accept
accept
weight of 0 is 0.812245
weight of 1 is -0.339065
weight of 2 is -7.866667
weight of 3 is 0.000000
not used!
accept
accept
deny
deny
weight of 0 is 1.360074
weight of 1 is -0.339044
weight of 2 is -7.511111
weight of 3 is 1.000000
used!
weight of 0 is 1.907904
weight of 1 is -0.339023
weight of 2 is -7.155556
weight of 3 is 2.000000
used!
weight of 0 is 1.360112
weight of 1 is -0.339044
weight of 2 is -7.511111
weight of 3 is 1.000000
not used!
accept
accept
weight of 0 is 1.907942
weight of 1 is 0.800646
weight of 2 is -7.333333
weight of 3 is 2.000000
used!
weight of 0 is 2.455772
weight of 1 is 1.940337
weight of 2 is -7.155556
weight of 3 is 3.000000
used!
accept
accept
weight of 0 is 1.907980
weight of 1 is 1.940323
weight of 2 is -7.155556
weight of 3 is 2.000000
not used!
accept
accept
weight of 0 is 1.360187
weight of 1 is 1.940302
weight of 2 is -7.333333
weight of 3 is 1.000000
not used!
accept
accept
weight of 0 is 0.812394
weight of 1 is 1.940280
weight of 2 is -7.688889
weight of 3 is 0.000000
not used!
deny
deny
weight of 0 is 0.264601
weight of 1 is 1.940266
weight of 2 is -7.688889
weight of 3 is -1.000000
not used!
accept
accept
accept
accept
weight of 0 is 0.812433
weight of 1 is 1.940288
weight of 2 is -7.511111
weight of 3 is 0.000000
used!
weight of 0 is 1.360264
weight of 1 is 1.940309
weight of 2 is -7.333333
weight of 3 is 1.000000
used!
weight of 0 is 0.812471
weight of 1 is 1.940288
weight of 2 is -7.511111
weight of 3 is 0.000000
not used!
deny
deny
weight of 0 is 0.264677
weight of 1 is 0.798927
weight of 2 is -7.866667
weight of 3 is -1.000000
not used!
deny
deny
weight of 0 is 0.812510
weight of 1 is 0.798948
weight of 2 is -7.688889
weight of 3 is 0.000000
used!
weight of 0 is 1.360342
weight of 1 is 0.798970
weight of 2 is -7.511111
weight of 3 is 1.000000
used!
accept
accept
deny
deny
weight of 0 is 1.908174
weight of 1 is 0.799005
weight of 2 is -7.511111
weight of 3 is 2.000000
used!
weight of 0 is 2.456007
weight of 1 is 0.799040
weight of 2 is -7.511111
weight of 3 is 3.000000
used!
accept
accept
accept
accept
weight of 0 is 1.908213
weight of 1 is 0.798984
weight of 2 is -7.511111
weight of 3 is 2.000000
not used!
accept
accept
accept
accept
accept
accept
weight of 0 is 1.360418
weight of 1 is 0.798963
weight of 2 is -7.688889
weight of 3 is 1.000000
not used!
accept
accept
weight of 0 is 0.812623
weight of 1 is 0.798941
weight of 2 is -8.044444
weight of 3 is 0.000000
not used!
deny
deny
weight of 0 is 0.264828
weight of 1 is 0.798927
weight of 2 is -8.044444
weight of 3 is -1.000000
not used!
deny
deny
weight of 0 is -0.282968
weight of 1 is 0.798906
weight of 2 is -8.222222
weight of 3 is -2.000000
not used!
deny
deny
weight of 0 is 0.264867
weight of 1 is 0.798927
weight of 2 is -8.044444
weight of 3 is -1.000000
used!
weight of 0 is 0.812702
weight of 1 is 0.798948
weight of 2 is -7.866667
weight of 3 is 0.000000
used!
deny
deny
weight of 0 is 1.360538
weight of 1 is 0.798970
weight of 2 is -7.511111
weight of 3 is 1.000000
used!
weight of 0 is 1.908373
weight of 1 is 0.798991
weight of 2 is -7.155556
weight of 3 is 2.000000
used!
accept
accept
weight of 0 is 2.456208
weight of 1 is 0.799005
weight of 2 is -7.155556
weight of 3 is 3.000000
used!
weight of 0 is 3.004044
weight of 1 is 0.799019
weight of 2 is -7.155556
weight of 3 is 4.000000
used!
accept
accept
weight of 0 is 3.551880
weight of 1 is 0.799040
weight of 2 is -6.977778
weight of 3 is 5.000000
used!
weight of 0 is 4.099715
weight of 1 is 0.799061
weight of 2 is -6.800000
weight of 3 is 6.000000
used!
accept
accept
accept
accept
weight of 0 is 3.551919
weight of 1 is 0.799047
weight of 2 is -6.800000
weight of 3 is 5.000000
not used!
weight of 0 is 3.004122
weight of 1 is 0.799026
weight of 2 is -6.977778
weight of 3 is 4.000000
not used!
accept
accept
weight of 0 is 2.456325
weight of 1 is 0.799005
weight of 2 is -7.333333
weight of 3 is 3.000000
not used!
accept
accept
weight of 0 is 1.908528
weight of 1 is 0.798991
weight of 2 is -7.333333
weight of 3 is 2.000000
not used!
accept
accept
weight of 0 is 1.360730
weight of 1 is 0.798970
weight of 2 is -7.511111
weight of 3 is 1.000000
not used!
accept
accept
accept
accept
accept
accept
weight of 0 is 0.812932
weight of 1 is 0.798913
weight of 2 is -7.866667
weight of 3 is 0.000000
not used!
weight of 0 is 0.265133
weight of 1 is 0.798899
weight of 2 is -7.866667
weight of 3 is -1.000000
not used!
deny
deny
weight of 0 is -0.282666
weight of 1 is 0.798878
weight of 2 is -8.044444
weight of 3 is -2.000000
not used!
deny
deny
deny
deny
deny
deny
weight of 0 is 0.265173
weight of 1 is 0.798934
weight of 2 is -8.044444
weight of 3 is -1.000000
used!
weight of 0 is 0.813012
weight of 1 is 0.798991
weight of 2 is -8.044444
weight of 3 is 0.000000
used!
accept
accept
weight of 0 is 1.360851
weight of 1 is 0.799012
weight of 2 is -7.866667
weight of 3 is 1.000000
used!
weight of 0 is 1.908690
weight of 1 is 0.799033
weight of 2 is -7.688889
weight of 3 is 2.000000
used!
accept
accept
accept
accept
weight of 0 is 2.456529
weight of 1 is 1.938320
weight of 2 is -7.333333
weight of 3 is 3.000000
used!
weight of 0 is 3.004369
weight of 1 is 3.077606
weight of 2 is -6.977778
weight of 3 is 4.000000
used!
weight of 0 is 2.456569
weight of 1 is 3.077550
weight of 2 is -6.977778
weight of 3 is 3.000000
not used!
accept
accept
weight of 0 is 1.908769
weight of 1 is 3.077529
weight of 2 is -7.155556
weight of 3 is 2.000000
not used!
accept
accept
weight of 0 is 1.360968
weight of 1 is 3.077507
weight of 2 is -7.511111
weight of 3 is 1.000000
not used!
accept
accept
weight of 0 is 0.813167
weight of 1 is 3.077493
weight of 2 is -7.511111
weight of 3 is 0.000000
not used!
deny
deny
deny
deny
accept
accept
weight of 0 is 1.361009
weight of 1 is 3.077514
weight of 2 is -7.333333
weight of 3 is 1.000000
used!
weight of 0 is 1.908850
weight of 1 is 3.077536
weight of 2 is -7.155556
weight of 3 is 2.000000
used!
accept
accept
accept
accept
weight of 0 is 2.456691
weight of 1 is 3.077557
weight of 2 is -6.800000
weight of 3 is 3.000000
used!
weight of 0 is 3.004533
weight of 1 is 3.077578
weight of 2 is -6.444444
weight of 3 is 4.000000
used!
weight of 0 is 2.456731
weight of 1 is 3.077522
weight of 2 is -6.622222
weight of 3 is 3.000000
not used!
accept
accept
weight of 0 is 1.908929
weight of 1 is 3.077507
weight of 2 is -6.622222
weight of 3 is 2.000000
not used!
weight of 0 is 1.361127
weight of 1 is 3.077486
weight of 2 is -6.800000
weight of 3 is 1.000000
not used!
accept
accept
accept
accept
accept
accept
weight of 0 is 0.813323
weight of 1 is 3.077430
weight of 2 is -7.155556
weight of 3 is 0.000000
not used!
weight of 0 is 0.265520
weight of 1 is 3.077416
weight of 2 is -7.155556
weight of 3 is -1.000000
not used!
deny
deny
weight of 0 is -0.282284
weight of 1 is 3.077395
weight of 2 is -7.333333
weight of 3 is -2.000000
not used!
deny
deny
weight of 0 is -0.830088
weight of 1 is 3.077374
weight of 2 is -7.688889
weight of 3 is -3.000000
not used!
deny
deny
accept
accept
weight of 0 is -0.268249
weight of 1 is 4.216658
weight of 2 is -6.977778
weight of 3 is -2.000000
used!
weight of 0 is 0.293591
weight of 1 is 5.355942
weight of 2 is -6.266667
weight of 3 is -1.000000
used!
accept
accept
weight of 0 is -0.254214
weight of 1 is 5.355886
weight of 2 is -6.266667
weight of 3 is -2.000000
not used!
deny
deny
weight of 0 is -0.802019
weight of 1 is 5.355864
weight of 2 is -6.444444
weight of 3 is -3.000000
not used!
deny
deny
weight of 0 is -1.349824
weight of 1 is 5.355843
weight of 2 is -6.800000
weight of 3 is -4.000000
not used!
accept
accept
weight of 0 is -1.897630
weight of 1 is 5.355829
weight of 2 is -6.800000
weight of 3 is -5.000000
not used!
accept
accept
deny
deny
weight of 0 is -1.349786
weight of 1 is 5.355886
weight of 2 is -6.800000
weight of 3 is -4.000000
used!
weight of 0 is -0.801941
weight of 1 is 5.355942
weight of 2 is -6.800000
weight of 3 is -3.000000
used!
deny
deny
weight of 0 is -0.254096
weight of 1 is 6.495160
weight of 2 is -6.444444
weight of 3 is -2.000000
used!
weight of 0 is 0.293749
weight of 1 is 7.634379
weight of 2 is -6.088889
weight of 3 is -1.000000
used!
weight of 0 is -0.254058
weight of 1 is 6.493655
weight of 2 is -6.266667
weight of 3 is -2.000000
not used!
deny
deny
deny
deny
weight of 0 is 0.293788
weight of 1 is 6.493690
weight of 2 is -6.088889
weight of 3 is -1.000000
used!
weight of 0 is 0.841633
weight of 1 is 6.493725
weight of 2 is -5.911111
weight of 3 is 0.000000
used!
weight of 0 is 0.293826
weight of 1 is 6.493704
weight of 2 is -6.266667
weight of 3 is -1.000000
not used!
deny
deny
weight of 0 is 0.841672
weight of 1 is 6.493725
weight of 2 is -5.911111
weight of 3 is 0.000000
used!
weight of 0 is 1.389518
weight of 1 is 6.493747
weight of 2 is -5.555556
weight of 3 is 1.000000
used!
weight of 0 is 0.841711
weight of 1 is 6.493732
weight of 2 is -5.555556
weight of 3 is 0.000000
not used!
accept
accept
weight of 0 is 0.293904
weight of 1 is 6.493711
weight of 2 is -5.733333
weight of 3 is -1.000000
not used!
accept
accept
weight of 0 is 0.841749
weight of 1 is 6.493725
weight of 2 is -5.733333
weight of 3 is 0.000000
used!
weight of 0 is 1.389595
weight of 1 is 6.493740
weight of 2 is -5.733333
weight of 3 is 1.000000
used!
deny
deny
accept
accept
weight of 0 is 0.841787
weight of 1 is 6.493725
weight of 2 is -5.733333
weight of 3 is 0.000000
not used!
deny
deny
weight of 0 is 1.389634
weight of 1 is 6.493782
weight of 2 is -5.377778
weight of 3 is 1.000000
used!
weight of 0 is 1.937481
weight of 1 is 6.493838
weight of 2 is -5.022222
weight of 3 is 2.000000
used!
accept
accept
weight of 0 is 1.389673
weight of 1 is 6.493817
weight of 2 is -5.200000
weight of 3 is 1.000000
not used!
accept
accept
weight of 0 is 0.841864
weight of 1 is 6.493796
weight of 2 is -5.555556
weight of 3 is 0.000000
not used!
accept
accept
weight of 0 is 1.389711
weight of 1 is 6.493817
weight of 2 is -5.377778
weight of 3 is 1.000000
used!
weight of 0 is 1.937559
weight of 1 is 6.493838
weight of 2 is -5.200000
weight of 3 is 2.000000
used!
accept
accept
accept
accept
weight of 0 is 1.389749
weight of 1 is 5.353262
weight of 2 is -5.200000
weight of 3 is 1.000000
not used!
accept
accept
weight of 0 is 0.841939
weight of 1 is 5.353241
weight of 2 is -5.377778
weight of 3 is 0.000000
not used!
deny
deny
accept
accept
accept
accept
weight of 0 is 0.294129
weight of 1 is 5.353227
weight of 2 is -5.377778
weight of 3 is -1.000000
not used!
weight of 0 is -0.267695
weight of 1 is 4.212672
weight of 2 is -5.377778
weight of 3 is -2.000000
not used!
deny
deny
weight of 0 is -0.815506
weight of 1 is 3.072174
weight of 2 is -5.555556
weight of 3 is -3.000000
not used!
deny
deny
weight of 0 is -1.363318
weight of 1 is 3.072153
weight of 2 is -5.911111
weight of 3 is -4.000000
not used!
deny
deny
weight of 0 is -0.815468
weight of 1 is 3.072209
weight of 2 is -5.911111
weight of 3 is -3.000000
used!
weight of 0 is -0.267618
weight of 1 is 3.072266
weight of 2 is -5.911111
weight of 3 is -2.000000
used!
accept
accept
accept
accept
weight of 0 is 0.280233
weight of 1 is 3.072287
weight of 2 is -5.733333
weight of 3 is -1.000000
used!
weight of 0 is 0.828083
weight of 1 is 3.072308
weight of 2 is -5.555556
weight of 3 is 0.000000
used!
accept
accept
weight of 0 is 1.375933
weight of 1 is 3.072329
weight of 2 is -5.200000
weight of 3 is 1.000000
used!
weight of 0 is 1.923784
weight of 1 is 3.072350
weight of 2 is -4.844444
weight of 3 is 2.000000
used!
accept
accept
weight of 0 is 1.375972
weight of 1 is 3.072294
weight of 2 is -4.844444
weight of 3 is 1.000000
not used!
accept
accept
weight of 0 is 0.828159
weight of 1 is 3.072273
weight of 2 is -5.022222
weight of 3 is 0.000000
not used!
accept
accept
weight of 0 is 0.280346
weight of 1 is 3.072252
weight of 2 is -5.377778
weight of 3 is -1.000000
not used!
deny
deny
deny
deny
accept
accept
accept
accept
weight of 0 is 0.828198
weight of 1 is 3.072273
weight of 2 is -5.022222
weight of 3 is 0.000000
used!
weight of 0 is 1.376050
weight of 1 is 3.072294
weight of 2 is -4.666667
weight of 3 is 1.000000
used!
weight of 0 is 0.828236
weight of 1 is 1.931906
weight of 2 is -4.666667
weight of 3 is 0.000000
not used!
weight of 0 is 0.280422
weight of 1 is 1.931885
weight of 2 is -4.844444
weight of 3 is -1.000000
not used!
deny
deny
weight of 0 is -0.267393
weight of 1 is 1.931864
weight of 2 is -5.200000
weight of 3 is -2.000000
not used!
deny
deny
weight of 0 is -0.815207
weight of 1 is 1.931850
weight of 2 is -5.200000
weight of 3 is -3.000000
not used!
deny
deny
weight of 0 is -0.267355
weight of 1 is 1.931906
weight of 2 is -5.022222
weight of 3 is -2.000000
used!
weight of 0 is 0.280499
weight of 1 is 1.931962
weight of 2 is -4.844444
weight of 3 is -1.000000
used!
deny
deny
weight of 0 is 0.828352
weight of 1 is 1.931984
weight of 2 is -4.488889
weight of 3 is 0.000000
used!
weight of 0 is 1.376205
weight of 1 is 1.932005
weight of 2 is -4.133333
weight of 3 is 1.000000
used!
accept
accept
weight of 0 is 1.924059
weight of 1 is 1.932019
weight of 2 is -4.133333
weight of 3 is 2.000000
used!
weight of 0 is 2.471912
weight of 1 is 1.932033
weight of 2 is -4.133333
weight of 3 is 3.000000
used!
accept
accept
accept
accept
weight of 0 is 3.019766
weight of 1 is 1.932054
weight of 2 is -3.955556
weight of 3 is 4.000000
used!
weight of 0 is 3.567620
weight of 1 is 1.932075
weight of 2 is -3.777778
weight of 3 is 5.000000
used!
weight of 0 is 3.019804
weight of 1 is 0.791708
weight of 2 is -3.955556
weight of 3 is 4.000000
not used!
accept
accept
weight of 0 is 2.471988
weight of 1 is 0.791687
weight of 2 is -4.311111
weight of 3 is 3.000000
not used!
weight of 0 is 1.924172
weight of 1 is 0.791673
weight of 2 is -4.311111
weight of 3 is 2.000000
not used!
accept
accept
weight of 0 is 1.376356
weight of 1 is 0.791652
weight of 2 is -4.488889
weight of 3 is 1.000000
not used!
accept
accept
weight of 0 is 0.828539
weight of 1 is 0.791631
weight of 2 is -4.844444
weight of 3 is 0.000000
not used!
accept
accept
deny
deny
accept
accept
accept
accept
accept
accept
weight of 0 is 1.376395
weight of 1 is 1.930342
weight of 2 is -4.488889
weight of 3 is 1.000000
used!
weight of 0 is 1.924252
weight of 1 is 3.069053
weight of 2 is -4.133333
weight of 3 is 2.000000
used!
weight of 0 is 1.376434
weight of 1 is 3.068997
weight of 2 is -4.311111
weight of 3 is 1.000000
not used!
weight of 0 is 0.828616
weight of 1 is 3.068976
weight of 2 is -4.666667
weight of 3 is 0.000000
not used!
weight of 0 is 0.280798
weight of 1 is 3.068962
weight of 2 is -4.666667
weight of 3 is -1.000000
not used!
deny
deny
weight of 0 is -0.267020
weight of 1 is 3.068940
weight of 2 is -4.844444
weight of 3 is -2.000000
not used!
deny
deny
deny
deny
accept
accept
weight of 0 is 0.280837
weight of 1 is 3.068997
weight of 2 is -4.666667
weight of 3 is -1.000000
used!
weight of 0 is 0.828694
weight of 1 is 3.069053
weight of 2 is -4.488889
weight of 3 is 0.000000
used!
accept
accept
weight of 0 is 0.280875
weight of 1 is 3.069018
weight of 2 is -4.666667
weight of 3 is -1.000000
not used!
weight of 0 is -0.266944
weight of 1 is 3.068997
weight of 2 is -5.022222
weight of 3 is -2.000000
not used!
weight of 0 is -0.814764
weight of 1 is 3.068983
weight of 2 is -5.022222
weight of 3 is -3.000000
not used!
accept
accept
weight of 0 is -1.362583
weight of 1 is 3.068962
weight of 2 is -5.200000
weight of 3 is -4.000000
not used!
deny
deny
deny
deny
weight of 0 is -1.910403
weight of 1 is 3.068940
weight of 2 is -5.555556
weight of 3 is -5.000000
not used!
deny
deny
weight of 0 is -1.362545
weight of 1 is 4.207654
weight of 2 is -5.377778
weight of 3 is -4.000000
used!
weight of 0 is -0.814686
weight of 1 is 5.346367
weight of 2 is -5.200000
weight of 3 is -3.000000
used!
accept
accept
accept
accept
weight of 0 is -1.362507
weight of 1 is 5.346311
weight of 2 is -5.200000
weight of 3 is -4.000000
not used!
deny
deny
weight of 0 is -1.910328
weight of 1 is 5.346290
weight of 2 is -5.377778
weight of 3 is -5.000000
not used!
deny
deny
weight of 0 is -2.458149
weight of 1 is 5.346269
weight of 2 is -5.733333
weight of 3 is -6.000000
not used!
deny
deny
weight of 0 is -1.910289
weight of 1 is 5.346325
weight of 2 is -5.555556
weight of 3 is -5.000000
used!
weight of 0 is -1.362429
weight of 1 is 5.346382
weight of 2 is -5.377778
weight of 3 is -4.000000
used!
weight of 0 is -1.910251
weight of 1 is 5.346367
weight of 2 is -5.377778
weight of 3 is -5.000000
not used!
deny
deny
weight of 0 is -1.362391
weight of 1 is 5.346389
weight of 2 is -5.022222
weight of 3 is -4.000000
used!
weight of 0 is -0.814530
weight of 1 is 5.346410
weight of 2 is -4.666667
weight of 3 is -3.000000
used!
deny
deny
weight of 0 is -0.266670
weight of 1 is 5.346424
weight of 2 is -4.666667
weight of 3 is -2.000000
used!
weight of 0 is 0.281190
weight of 1 is 5.346438
weight of 2 is -4.666667
weight of 3 is -1.000000
used!
deny
deny
weight of 0 is 0.829051
weight of 1 is 5.346459
weight of 2 is -4.488889
weight of 3 is 0.000000
used!
weight of 0 is 1.376912
weight of 1 is 5.346480
weight of 2 is -4.311111
weight of 3 is 1.000000
used!
accept
accept
accept
accept
weight of 0 is 1.924773
weight of 1 is 5.346501
weight of 2 is -3.955556
weight of 3 is 2.000000
used!
weight of 0 is 2.472634
weight of 1 is 5.346522
weight of 2 is -3.600000
weight of 3 is 3.000000
used!
weight of 0 is 1.924811
weight of 1 is 4.206494
weight of 2 is -3.777778
weight of 3 is 2.000000
not used!
weight of 0 is 1.376988
weight of 1 is 4.206473
weight of 2 is -4.133333
weight of 3 is 1.000000
not used!
accept
accept
weight of 0 is 1.924849
weight of 1 is 4.206487
weight of 2 is -4.133333
weight of 3 is 2.000000
used!
weight of 0 is 2.472711
weight of 1 is 4.206501
weight of 2 is -4.133333
weight of 3 is 3.000000
used!
weight of 0 is 1.924888
weight of 1 is 4.206487
weight of 2 is -4.133333
weight of 3 is 2.000000
not used!
accept
accept
weight of 0 is 1.377065
weight of 1 is 4.206466
weight of 2 is -4.311111
weight of 3 is 1.000000
not used!
accept
accept
accept
accept
accept
accept
accept
accept
accept
accept
weight of 0 is 0.829240
weight of 1 is 4.206409
weight of 2 is -4.666667
weight of 3 is 0.000000
not used!
weight of 0 is 0.281416
weight of 1 is 4.206395
weight of 2 is -4.666667
weight of 3 is -1.000000
not used!
deny
deny
accept
accept
accept
accept
weight of 0 is -0.266409
weight of 1 is 3.066477
weight of 2 is -4.844444
weight of 3 is -2.000000
not used!
accept
accept
deny
deny
weight of 0 is -0.814235
weight of 1 is 3.066463
weight of 2 is -4.844444
weight of 3 is -3.000000
not used!
deny
deny
deny
deny
weight of 0 is -0.266370
weight of 1 is 3.066484
weight of 2 is -4.488889
weight of 3 is -2.000000
used!
weight of 0 is 0.281494
weight of 1 is 3.066505
weight of 2 is -4.133333
weight of 3 is -1.000000
used!
deny
deny
weight of 0 is 0.829358
weight of 1 is 3.066519
weight of 2 is -4.133333
weight of 3 is 0.000000
used!
weight of 0 is 1.377223
weight of 1 is 3.066533
weight of 2 is -4.133333
weight of 3 is 1.000000
used!
weight of 0 is 0.829397
weight of 1 is 3.066498
weight of 2 is -4.133333
weight of 3 is 0.000000
not used!
accept
accept
weight of 0 is 1.377261
weight of 1 is 3.066519
weight of 2 is -3.955556
weight of 3 is 1.000000
used!
weight of 0 is 1.925126
weight of 1 is 3.066540
weight of 2 is -3.777778
weight of 3 is 2.000000
used!
accept
accept
weight of 0 is 2.472991
weight of 1 is 3.066561
weight of 2 is -3.422222
weight of 3 is 3.000000
used!
weight of 0 is 3.020857
weight of 1 is 3.066583
weight of 2 is -3.066667
weight of 3 is 4.000000
used!
weight of 0 is 2.473030
weight of 1 is 3.066561
weight of 2 is -3.244444
weight of 3 is 3.000000
not used!
accept
accept
weight of 0 is 1.925203
weight of 1 is 3.066540
weight of 2 is -3.600000
weight of 3 is 2.000000
not used!
accept
accept
weight of 0 is 1.377376
weight of 1 is 3.066526
weight of 2 is -3.600000
weight of 3 is 1.000000
not used!
weight of 0 is 0.829548
weight of 1 is 3.066505
weight of 2 is -3.777778
weight of 3 is 0.000000
not used!
accept
accept
accept
accept
weight of 0 is 0.281721
weight of 1 is 1.926681
weight of 2 is -3.777778
weight of 3 is -1.000000
not used!
deny
deny
accept
accept
weight of 0 is -0.266108
weight of 1 is 1.926624
weight of 2 is -3.955556
weight of 3 is -2.000000
not used!
deny
deny
weight of 0 is -0.813937
weight of 1 is 1.926603
weight of 2 is -4.311111
weight of 3 is -3.000000
not used!
weight of 0 is -1.361766
weight of 1 is 1.926589
weight of 2 is -4.311111
weight of 3 is -4.000000
not used!
deny
deny
weight of 0 is -0.799914
weight of 1 is 3.064995
weight of 2 is -3.600000
weight of 3 is -3.000000
used!
weight of 0 is -0.238061
weight of 1 is 4.203401
weight of 2 is -2.888889
weight of 3 is -2.000000
used!
weight of 0 is -0.785891
weight of 1 is 4.203380
weight of 2 is -3.066667
weight of 3 is -3.000000
not used!
weight of 0 is -1.333720
weight of 1 is 4.203366
weight of 2 is -3.066667
weight of 3 is -4.000000
not used!
deny
deny
accept
accept
weight of 0 is -0.771868
weight of 1 is 5.341762
weight of 2 is -2.888889
weight of 3 is -3.000000
used!
weight of 0 is -0.210015
weight of 1 is 6.480159
weight of 2 is -2.711111
weight of 3 is -2.000000
used!
accept
accept
weight of 0 is -0.757846
weight of 1 is 6.480123
weight of 2 is -2.711111
weight of 3 is -3.000000
not used!
deny
deny
weight of 0 is -0.209978
weight of 1 is 7.618489
weight of 2 is -2.533333
weight of 3 is -2.000000
used!
weight of 0 is 0.337889
weight of 1 is 8.756855
weight of 2 is -2.355556
weight of 3 is -1.000000
used!
weight of 0 is -0.209941
weight of 1 is 8.756834
weight of 2 is -2.533333
weight of 3 is -2.000000
not used!
deny
deny
weight of 0 is -0.757773
weight of 1 is 8.756813
weight of 2 is -2.888889
weight of 3 is -3.000000
not used!
weight of 0 is -1.305604
weight of 1 is 8.756799
weight of 2 is -2.888889
weight of 3 is -4.000000
not used!
deny
deny
weight of 0 is -0.757736
weight of 1 is 8.756813
weight of 2 is -2.888889
weight of 3 is -3.000000
used!
weight of 0 is -0.209868
weight of 1 is 8.756827
weight of 2 is -2.888889
weight of 3 is -2.000000
used!
deny
deny
weight of 0 is 0.338001
weight of 1 is 8.756848
weight of 2 is -2.711111
weight of 3 is -1.000000
used!
weight of 0 is 0.885869
weight of 1 is 8.756869
weight of 2 is -2.533333
weight of 3 is 0.000000
used!
accept
accept
weight of 0 is 1.433737
weight of 1 is 8.756891
weight of 2 is -2.177778
weight of 3 is 1.000000
used!
weight of 0 is 1.981606
weight of 1 is 8.756912
weight of 2 is -1.822222
weight of 3 is 2.000000
used!
weight of 0 is 1.433774
weight of 1 is 7.617313
weight of 2 is -1.822222
weight of 3 is 1.000000
not used!
accept
accept
weight of 0 is 1.981643
weight of 1 is 7.617327
weight of 2 is -1.822222
weight of 3 is 2.000000
used!
weight of 0 is 2.529512
weight of 1 is 7.617341
weight of 2 is -1.822222
weight of 3 is 3.000000
used!
accept
accept
accept
accept
weight of 0 is 1.981679
weight of 1 is 7.617320
weight of 2 is -2.000000
weight of 3 is 2.000000
not used!
accept
accept
accept
accept
accept
accept
weight of 0 is 1.433845
weight of 1 is 7.617264
weight of 2 is -2.000000
weight of 3 is 1.000000
not used!
accept
accept
accept
accept
weight of 0 is 0.886010
weight of 1 is 6.477799
weight of 2 is -2.177778
weight of 3 is 0.000000
not used!
weight of 0 is 0.338176
weight of 1 is 6.477777
weight of 2 is -2.533333
weight of 3 is -1.000000
not used!
weight of 0 is -0.209659
weight of 1 is 6.477763
weight of 2 is -2.533333
weight of 3 is -2.000000
not used!
deny
deny
accept
accept
accept
accept
weight of 0 is -0.757495
weight of 1 is 6.477742
weight of 2 is -2.888889
weight of 3 is -3.000000
not used!
weight of 0 is -1.305331
weight of 1 is 6.477728
weight of 2 is -2.888889
weight of 3 is -4.000000
not used!
deny
deny
deny
deny
deny
deny
weight of 0 is -0.757458
weight of 1 is 6.477784
weight of 2 is -2.711111
weight of 3 is -3.000000
used!
weight of 0 is -0.209586
weight of 1 is 6.477841
weight of 2 is -2.533333
weight of 3 is -2.000000
used!
deny
deny
weight of 0 is 0.338287
weight of 1 is 6.477862
weight of 2 is -2.177778
weight of 3 is -1.000000
used!
weight of 0 is 0.886160
weight of 1 is 6.477883
weight of 2 is -1.822222
weight of 3 is 0.000000
used!
weight of 0 is 0.338323
weight of 1 is 6.477827
weight of 2 is -2.000000
weight of 3 is -1.000000
not used!
deny
deny
weight of 0 is 0.886195
weight of 1 is 6.477841
weight of 2 is -2.000000
weight of 3 is 0.000000
used!
weight of 0 is 1.434068
weight of 1 is 6.477855
weight of 2 is -2.000000
weight of 3 is 1.000000
used!
weight of 0 is 0.886231
weight of 1 is 6.477834
weight of 2 is -2.355556
weight of 3 is 0.000000
not used!
accept
accept
weight of 0 is 1.434104
weight of 1 is 6.477855
weight of 2 is -2.177778
weight of 3 is 1.000000
used!
weight of 0 is 1.981977
weight of 1 is 6.477876
weight of 2 is -2.000000
weight of 3 is 2.000000
used!
weight of 0 is 1.434140
weight of 1 is 6.477862
weight of 2 is -2.000000
weight of 3 is 1.000000
not used!
accept
accept
accept
accept
weight of 0 is 1.982013
weight of 1 is 6.477883
weight of 2 is -1.644444
weight of 3 is 2.000000
used!
weight of 0 is 2.529887
weight of 1 is 6.477904
weight of 2 is -1.288889
weight of 3 is 3.000000
used!
weight of 0 is 1.982049
weight of 1 is 6.477883
weight of 2 is -1.466667
weight of 3 is 2.000000
not used!
weight of 0 is 1.420214
weight of 1 is 5.338587
weight of 2 is -1.466667
weight of 3 is 1.000000
not used!
accept
accept
accept
accept
accept
accept
accept
accept
weight of 0 is 0.872375
weight of 1 is 5.338573
weight of 2 is -1.466667
weight of 3 is 0.000000
not used!
accept
accept
accept
accept
accept
accept
accept
accept
weight of 0 is 0.324534
weight of 1 is 5.338517
weight of 2 is -1.644444
weight of 3 is -1.000000
not used!
weight of 0 is -0.223307
weight of 1 is 5.338496
weight of 2 is -2.000000
weight of 3 is -2.000000
not used!
deny
deny
weight of 0 is -0.771148
weight of 1 is 5.338481
weight of 2 is -2.000000
weight of 3 is -3.000000
not used!
deny
deny
accept
accept
accept
accept
weight of 0 is -0.223271
weight of 1 is 5.338538
weight of 2 is -1.822222
weight of 3 is -2.000000
used!
weight of 0 is 0.324606
weight of 1 is 5.338594
weight of 2 is -1.644444
weight of 3 is -1.000000
used!
weight of 0 is -0.223236
weight of 1 is 5.338580
weight of 2 is -1.644444
weight of 3 is -2.000000
not used!
weight of 0 is -0.785073
weight of 1 is 4.199413
weight of 2 is -1.644444
weight of 3 is -3.000000
not used!
weight of 0 is -1.346911
weight of 1 is 3.060171
weight of 2 is -1.822222
weight of 3 is -4.000000
not used!
deny
deny
weight of 0 is -1.894753
weight of 1 is 1.920986
weight of 2 is -2.000000
weight of 3 is -5.000000
not used!
deny
deny
deny
deny
deny
deny
weight of 0 is -1.346875
weight of 1 is 1.921042
weight of 2 is -2.000000
weight of 3 is -4.000000
used!
weight of 0 is -0.798998
weight of 1 is 1.921099
weight of 2 is -2.000000
weight of 3 is -3.000000
used!
deny
deny
deny
deny
weight of 0 is -0.251120
weight of 1 is 3.058967
weight of 2 is -1.822222
weight of 3 is -2.000000
used!
weight of 0 is 0.296758
weight of 1 is 4.196835
weight of 2 is -1.644444
weight of 3 is -1.000000
used!
deny
deny
weight of 0 is 0.844636
weight of 1 is 4.196856
weight of 2 is -1.288889
weight of 3 is 0.000000
used!
weight of 0 is 1.392515
weight of 1 is 4.196877
weight of 2 is -0.933333
weight of 3 is 1.000000
used!
accept
accept
weight of 0 is 1.954372
weight of 1 is 5.334766
weight of 2 is -0.933333
weight of 3 is 2.000000
used!
weight of 0 is 2.516229
weight of 1 is 6.472656
weight of 2 is -0.933333
weight of 3 is 3.000000
used!
accept
accept
weight of 0 is 3.064107
weight of 1 is 7.610507
weight of 2 is -0.933333
weight of 3 is 4.000000
used!
weight of 0 is 3.611986
weight of 1 is 8.748359
weight of 2 is -0.933333
weight of 3 is 5.000000
used!
accept
accept
weight of 0 is 3.064141
weight of 1 is 7.609129
weight of 2 is -1.111111
weight of 3 is 4.000000
not used!
accept
accept
accept
accept
accept
accept
accept
accept
accept
accept
accept
accept
accept
accept
accept
accept
weight of 0 is 2.516294
weight of 1 is 7.609115
weight of 2 is -1.111111
weight of 3 is 3.000000
not used!
accept
accept
accept
accept
accept
accept
weight of 0 is 1.968446
weight of 1 is 6.470009
weight of 2 is -1.466667
weight of 3 is 2.000000
not used!
weight of 0 is 1.420598
weight of 1 is 6.469995
weight of 2 is -1.466667
weight of 3 is 1.000000
not used!
accept
accept
accept
accept
accept
accept
weight of 0 is 0.872750
weight of 1 is 6.469952
weight of 2 is -1.822222
weight of 3 is 0.000000
not used!
accept
accept
weight of 0 is 0.324902
weight of 1 is 6.469938
weight of 2 is -1.822222
weight of 3 is -1.000000
not used!
accept
accept
weight of 0 is -0.222947
weight of 1 is 6.469917
weight of 2 is -2.000000
weight of 3 is -2.000000
not used!
deny
deny
deny
deny
deny
deny
weight of 0 is 0.324936
weight of 1 is 6.469974
weight of 2 is -1.822222
weight of 3 is -1.000000
used!
weight of 0 is 0.872820
weight of 1 is 6.470030
weight of 2 is -1.644444
weight of 3 is 0.000000
used!
accept
accept
accept
accept
weight of 0 is 1.420703
weight of 1 is 6.470051
weight of 2 is -1.288889
weight of 3 is 1.000000
used!
weight of 0 is 1.968587
weight of 1 is 6.470072
weight of 2 is -0.933333
weight of 3 is 2.000000
used!
accept
accept
accept
accept
weight of 0 is 2.516471
weight of 1 is 6.470086
weight of 2 is -0.933333
weight of 3 is 3.000000
used!
weight of 0 is 3.064355
weight of 1 is 6.470100
weight of 2 is -0.933333
weight of 3 is 4.000000
used!
accept
accept
weight of 0 is 2.516505
weight of 1 is 5.331122
weight of 2 is -0.933333
weight of 3 is 3.000000
not used!
weight of 0 is 1.968654
weight of 1 is 5.331100
weight of 2 is -1.111111
weight of 3 is 2.000000
not used!
weight of 0 is 1.420803
weight of 1 is 5.331079
weight of 2 is -1.466667
weight of 3 is 1.000000
not used!
weight of 0 is 0.872951
weight of 1 is 5.331065
weight of 2 is -1.466667
weight of 3 is 0.000000
not used!
accept
accept
weight of 0 is 0.325100
weight of 1 is 5.331044
weight of 2 is -1.644444
weight of 3 is -1.000000
not used!
accept
accept
accept
accept
accept
accept
accept
accept
accept
accept
weight of 0 is -0.222754
weight of 1 is 5.331023
weight of 2 is -2.000000
weight of 3 is -2.000000
not used!
deny
deny
accept
accept
accept
accept
weight of 0 is 0.325133
weight of 1 is 5.331044
weight of 2 is -1.822222
weight of 3 is -1.000000
used!
weight of 0 is 0.873020
weight of 1 is 5.331065
weight of 2 is -1.644444
weight of 3 is 0.000000
used!
weight of 0 is 0.325165
weight of 1 is 5.331009
weight of 2 is -1.644444
weight of 3 is -1.000000
not used!
deny
deny
weight of 0 is -0.222690
weight of 1 is 5.330988
weight of 2 is -1.822222
weight of 3 is -2.000000
not used!
accept
accept
accept
accept
weight of 0 is 0.325198
weight of 1 is 5.331009
[...]
weight of 3 is -107.000000
not used!
deny
deny
deny
deny
weight of 0 is 20.131693
weight of 1 is 33.624708
weight of 2 is -44.800000
weight of 3 is -106.000000
used!
weight of 0 is 20.705284
weight of 1 is 33.640189
weight of 2 is -44.800000
weight of 3 is -105.000000
used!
deny
deny
deny
deny
deny
deny
deny
deny
weight of 0 is 21.278875
weight of 1 is 33.643871
weight of 2 is -44.800000
weight of 3 is -104.000000
used!
weight of 0 is 21.852466
weight of 1 is 33.647553
weight of 2 is -44.800000
weight of 3 is -103.000000
used!
deny
deny
deny
deny
deny
deny
weight of 0 is 22.426057
weight of 1 is 33.648117
weight of 2 is -44.800000
weight of 3 is -102.000000
used!
weight of 0 is 22.999648
weight of 1 is 33.648681
weight of 2 is -44.800000
weight of 3 is -101.000000
used!
deny
deny
deny
deny
deny
deny
weight of 0 is 23.573238
weight of 1 is 33.648737
weight of 2 is -44.800000
weight of 3 is -100.000000
used!
weight of 0 is 24.146829
weight of 1 is 33.648793
weight of 2 is -44.800000
weight of 3 is -99.000000
used!
deny
deny
weight of 0 is 24.720420
weight of 1 is 33.648812
weight of 2 is -44.800000
weight of 3 is -98.000000
used!
weight of 0 is 25.294011
weight of 1 is 33.648831
weight of 2 is -44.800000
weight of 3 is -97.000000
used!
deny
deny
weight of 0 is 25.867602
weight of 1 is 33.648850
weight of 2 is -44.800000
weight of 3 is -96.000000
used!
weight of 0 is 26.441193
weight of 1 is 33.648869
weight of 2 is -44.800000
weight of 3 is -95.000000
used!
deny
deny
deny
deny
weight of 0 is 26.426067
weight of 1 is 27.947873
weight of 2 is -44.800000
weight of 3 is -96.000000
not used!
deny
deny
weight of 0 is 26.377770
weight of 1 is 22.060023
weight of 2 is -45.555556
weight of 3 is -97.000000
not used!
deny
deny
weight of 0 is 26.951361
weight of 1 is 23.084745
weight of 2 is -45.555556
weight of 3 is -96.000000
used!
weight of 0 is 27.524952
weight of 1 is 24.109467
weight of 2 is -45.555556
weight of 3 is -95.000000
used!
deny
deny
deny
deny
weight of 0 is 28.098542
weight of 1 is 24.109485
weight of 2 is -45.555556
weight of 3 is -94.000000
used!
weight of 0 is 28.672134
weight of 1 is 24.109504
weight of 2 is -45.555556
weight of 3 is -93.000000
used!
deny
deny
weight of 0 is 29.245724
weight of 1 is 24.109523
weight of 2 is -45.555556
weight of 3 is -92.000000
used!
weight of 0 is 29.819315
weight of 1 is 24.109542
weight of 2 is -45.555556
weight of 3 is -91.000000
used!
deny
deny
weight of 0 is 30.392906
weight of 1 is 24.109561
weight of 2 is -45.555556
weight of 3 is -90.000000
used!
weight of 0 is 30.966497
weight of 1 is 24.109579
weight of 2 is -45.555556
weight of 3 is -89.000000
used!
deny
deny
deny
deny
weight of 0 is 31.540088
weight of 1 is 24.109598
weight of 2 is -45.555556
weight of 3 is -88.000000
used!
weight of 0 is 32.113679
weight of 1 is 24.109617
weight of 2 is -45.555556
weight of 3 is -87.000000
used!
deny
deny
deny
deny
deny
deny
deny
deny
deny
deny
deny
deny
deny
deny
weight of 0 is 32.687270
weight of 1 is 24.247497
weight of 2 is -45.555556
weight of 3 is -86.000000
used!
weight of 0 is 33.260861
weight of 1 is 24.385377
weight of 2 is -45.555556
weight of 3 is -85.000000
used!
deny
deny
deny
deny
deny
deny
deny
deny
weight of 0 is 33.834452
weight of 1 is 24.385395
weight of 2 is -45.555556
weight of 3 is -84.000000
used!
weight of 0 is 34.408043
weight of 1 is 24.385414
weight of 2 is -45.555556
weight of 3 is -83.000000
used!
deny
deny
weight of 0 is 34.981634
weight of 1 is 24.386598
weight of 2 is -45.555556
weight of 3 is -82.000000
used!
weight of 0 is 35.555225
weight of 1 is 24.387781
weight of 2 is -45.555556
weight of 3 is -81.000000
used!
deny
deny
deny
deny
deny
deny
weight of 0 is 36.128816
weight of 1 is 24.390543
weight of 2 is -45.555556
weight of 3 is -80.000000
used!
weight of 0 is 36.702407
weight of 1 is 24.393305
weight of 2 is -45.555556
weight of 3 is -79.000000
used!
deny
deny
deny
deny
deny
deny
deny
deny
deny
deny
weight of 0 is 37.293422
weight of 1 is 26.916779
weight of 2 is -45.022222
weight of 3 is -78.000000
used!
weight of 0 is 37.884437
weight of 1 is 29.440254
weight of 2 is -44.488889
weight of 3 is -77.000000
used!
deny
deny
deny
deny
deny
deny
deny
deny
deny
deny
deny
deny
deny
deny
weight of 0 is 37.899563
weight of 1 is 31.114216
weight of 2 is -44.488889
weight of 3 is -76.000000
used!
weight of 0 is 37.914689
weight of 1 is 32.788178
weight of 2 is -44.488889
weight of 3 is -75.000000
used!
deny
deny
deny
deny
weight of 0 is 37.929815
weight of 1 is 32.788197
weight of 2 is -44.488889
weight of 3 is -74.000000
used!
weight of 0 is 37.944941
weight of 1 is 32.788216
weight of 2 is -44.488889
weight of 3 is -73.000000
used!
deny
deny
deny
deny
deny
deny
deny
deny
deny
deny
weight of 0 is 37.960067
weight of 1 is 33.017533
weight of 2 is -44.488889
weight of 3 is -72.000000
used!
weight of 0 is 37.975193
weight of 1 is 33.246851
weight of 2 is -44.488889
weight of 3 is -71.000000
used!
deny
deny
weight of 0 is 37.427720
weight of 1 is 28.733180
weight of 2 is -45.022222
weight of 3 is -72.000000
not used!
deny
deny
weight of 0 is 37.442846
weight of 1 is 28.733199
weight of 2 is -45.022222
weight of 3 is -71.000000
used!
weight of 0 is 37.457972
weight of 1 is 28.733217
weight of 2 is -45.022222
weight of 3 is -70.000000
used!
deny
deny
accept
accept
accept
accept
deny
deny
deny
deny
deny
deny
deny
deny
deny
deny
deny
deny
weight of 0 is 37.473098
weight of 1 is 30.636087
weight of 2 is -45.022222
weight of 3 is -69.000000
used!
weight of 0 is 37.488224
weight of 1 is 32.538957
weight of 2 is -45.022222
weight of 3 is -68.000000
used!
deny
deny
accept
accept
deny
deny
deny
deny
deny
deny
deny
deny
deny
deny
deny
deny
deny
deny
weight of 0 is 38.079241
weight of 1 is 33.963801
weight of 2 is -43.777778
weight of 3 is -67.000000
used!
weight of 0 is 38.670258
weight of 1 is 35.388644
weight of 2 is -42.533333
weight of 3 is -66.000000
used!
accept
accept
weight of 0 is 38.134190
weight of 1 is 31.803732
weight of 2 is -42.533333
weight of 3 is -67.000000
not used!
accept
accept
deny
deny
deny
deny
weight of 0 is 38.725207
weight of 1 is 31.803756
weight of 2 is -42.355556
weight of 3 is -66.000000
used!
weight of 0 is 39.316224
weight of 1 is 31.803779
weight of 2 is -42.177778
weight of 3 is -65.000000
used!
deny
deny
weight of 0 is 39.907241
weight of 1 is 31.803824
weight of 2 is -41.644444
weight of 3 is -64.000000
used!
weight of 0 is 40.498258
weight of 1 is 31.803869
weight of 2 is -41.111111
weight of 3 is -63.000000
used!
deny
deny
weight of 0 is 41.089276
weight of 1 is 31.803892
weight of 2 is -39.866667
weight of 3 is -62.000000
used!
weight of 0 is 41.680294
weight of 1 is 31.803916
weight of 2 is -38.622222
weight of 3 is -61.000000
used!
deny
deny
weight of 0 is 42.271311
weight of 1 is 31.803939
weight of 2 is -37.733333
weight of 3 is -60.000000
used!
weight of 0 is 42.862328
weight of 1 is 31.803963
weight of 2 is -36.844444
weight of 3 is -59.000000
used!
deny
deny
weight of 0 is 43.453346
weight of 1 is 31.803984
weight of 2 is -36.844444
weight of 3 is -58.000000
used!
weight of 0 is 44.044363
weight of 1 is 31.804005
weight of 2 is -36.844444
weight of 3 is -57.000000
used!
accept
accept
deny
deny
accept
accept
weight of 0 is 44.635381
weight of 1 is 31.804028
weight of 2 is -36.666667
weight of 3 is -56.000000
used!
weight of 0 is 45.226399
weight of 1 is 31.804052
weight of 2 is -36.488889
weight of 3 is -55.000000
used!
deny
deny
deny
deny
deny
deny
weight of 0 is 45.817418
weight of 1 is 31.804099
weight of 2 is -36.311111
weight of 3 is -54.000000
used!
weight of 0 is 46.408437
weight of 1 is 31.804146
weight of 2 is -36.133333
weight of 3 is -53.000000
used!
deny
deny
weight of 0 is 46.999457
weight of 1 is 31.804169
weight of 2 is -35.600000
weight of 3 is -52.000000
used!
weight of 0 is 47.590476
weight of 1 is 31.804193
weight of 2 is -35.066667
weight of 3 is -51.000000
used!
deny
deny
weight of 0 is 48.181496
weight of 1 is 31.804216
weight of 2 is -33.822222
weight of 3 is -50.000000
used!
weight of 0 is 48.772516
weight of 1 is 31.804240
weight of 2 is -32.577778
weight of 3 is -49.000000
used!
deny
deny
weight of 0 is 49.363536
weight of 1 is 31.804263
weight of 2 is -31.688889
weight of 3 is -48.000000
used!
weight of 0 is 49.954556
weight of 1 is 31.804287
weight of 2 is -30.800000
weight of 3 is -47.000000
used!
deny
deny
weight of 0 is 50.545575
weight of 1 is 31.804308
weight of 2 is -30.800000
weight of 3 is -46.000000
used!
weight of 0 is 51.136595
weight of 1 is 31.804329
weight of 2 is -30.800000
weight of 3 is -45.000000
used!
deny
deny
weight of 0 is 51.727615
weight of 1 is 31.804352
weight of 2 is -30.622222
weight of 3 is -44.000000
used!
weight of 0 is 52.318636
weight of 1 is 31.804376
weight of 2 is -30.444444
weight of 3 is -43.000000
used!
deny
deny
weight of 0 is 52.909656
weight of 1 is 31.804421
weight of 2 is -29.911111
weight of 3 is -42.000000
used!
weight of 0 is 53.500677
weight of 1 is 31.804465
weight of 2 is -29.377778
weight of 3 is -41.000000
used!
deny
deny
weight of 0 is 54.091698
weight of 1 is 31.804489
weight of 2 is -28.133333
weight of 3 is -40.000000
used!
weight of 0 is 54.682719
weight of 1 is 31.804512
weight of 2 is -26.888889
weight of 3 is -39.000000
used!
deny
deny
weight of 0 is 55.273740
weight of 1 is 31.804536
weight of 2 is -26.000000
weight of 3 is -38.000000
used!
weight of 0 is 55.864761
weight of 1 is 31.804559
weight of 2 is -25.111111
weight of 3 is -37.000000
used!
deny
deny
weight of 0 is 56.455782
weight of 1 is 31.804580
weight of 2 is -25.111111
weight of 3 is -36.000000
used!
weight of 0 is 57.046803
weight of 1 is 31.804601
weight of 2 is -25.111111
weight of 3 is -35.000000
used!
deny
deny
weight of 0 is 57.637824
weight of 1 is 31.804625
weight of 2 is -24.933333
weight of 3 is -34.000000
used!
weight of 0 is 58.228846
weight of 1 is 31.804648
weight of 2 is -24.755556
weight of 3 is -33.000000
used!
deny
deny
weight of 0 is 58.819867
weight of 1 is 31.804693
weight of 2 is -24.222222
weight of 3 is -32.000000
used!
weight of 0 is 59.410889
weight of 1 is 31.804738
weight of 2 is -23.688889
weight of 3 is -31.000000
used!
deny
deny
weight of 0 is 60.001912
weight of 1 is 31.804761
weight of 2 is -22.444444
weight of 3 is -30.000000
used!
weight of 0 is 60.592934
weight of 1 is 31.804785
weight of 2 is -21.200000
weight of 3 is -29.000000
used!
accept
accept
weight of 0 is 61.183956
weight of 1 is 31.804808
weight of 2 is -20.311111
weight of 3 is -28.000000
used!
weight of 0 is 61.774978
weight of 1 is 31.804832
weight of 2 is -19.422222
weight of 3 is -27.000000
used!
deny
deny
accept
accept
accept
accept
weight of 0 is 62.366001
weight of 1 is 31.804855
weight of 2 is -19.244444
weight of 3 is -26.000000
used!
weight of 0 is 62.957023
weight of 1 is 31.804878
weight of 2 is -19.066667
weight of 3 is -25.000000
used!
accept
accept
accept
accept
deny
deny
accept
accept
weight of 0 is 63.548048
weight of 1 is 31.804949
weight of 2 is -17.822222
weight of 3 is -24.000000
used!
weight of 0 is 64.139073
weight of 1 is 31.805019
weight of 2 is -16.577778
weight of 3 is -23.000000
used!
accept
accept
deny
deny
accept
accept
weight of 0 is 64.730099
weight of 1 is 31.805111
weight of 2 is -15.333333
weight of 3 is -22.000000
used!
weight of 0 is 65.321124
weight of 1 is 31.805203
weight of 2 is -14.088889
weight of 3 is -21.000000
used!
accept
accept
deny
deny
accept
accept
weight of 0 is 65.912151
weight of 1 is 31.805294
weight of 2 is -12.844444
weight of 3 is -20.000000
used!
weight of 0 is 66.503178
weight of 1 is 31.805386
weight of 2 is -11.600000
weight of 3 is -19.000000
used!
accept
accept
accept
accept
accept
accept
accept
accept
accept
accept
accept
accept
accept
accept
accept
accept
accept
accept
accept
accept
accept
accept
accept
accept
deny
deny
deny
deny
deny
deny
deny
deny
deny
deny
deny
deny
deny
deny
weight of 0 is 66.511638
weight of 1 is 31.865186
weight of 2 is -10.888889
weight of 3 is -18.000000
used!
weight of 0 is 66.520098
weight of 1 is 31.924986
weight of 2 is -10.177778
weight of 3 is -17.000000
used!
deny
deny
weight of 0 is 66.528619
weight of 1 is 31.929917
weight of 2 is -10.177778
weight of 3 is -16.000000
used!
weight of 0 is 66.537140
weight of 1 is 31.934849
weight of 2 is -10.177778
weight of 3 is -15.000000
used!
deny
deny
weight of 0 is 66.545585
weight of 1 is 31.940974
weight of 2 is -10.177778
weight of 3 is -14.000000
used!
weight of 0 is 66.554030
weight of 1 is 31.947098
weight of 2 is -10.177778
weight of 3 is -13.000000
used!
deny
deny
weight of 0 is 66.562490
weight of 1 is 31.948301
weight of 2 is -10.177778
weight of 3 is -12.000000
used!
weight of 0 is 66.570950
weight of 1 is 31.949503
weight of 2 is -10.177778
weight of 3 is -11.000000
used!
deny
deny
weight of 0 is 66.579471
weight of 1 is 31.954444
weight of 2 is -10.177778
weight of 3 is -10.000000
used!
weight of 0 is 66.587992
weight of 1 is 31.959385
weight of 2 is -10.177778
weight of 3 is -9.000000
used!
deny
deny
weight of 0 is 66.596438
weight of 1 is 31.965510
weight of 2 is -10.177778
weight of 3 is -8.000000
used!
weight of 0 is 66.604883
weight of 1 is 31.971634
weight of 2 is -10.177778
weight of 3 is -7.000000
used!
deny
deny
weight of 0 is 66.613343
weight of 1 is 31.972837
weight of 2 is -10.177778
weight of 3 is -6.000000
used!
weight of 0 is 66.621804
weight of 1 is 31.974039
weight of 2 is -10.177778
weight of 3 is -5.000000
used!
deny
deny
weight of 0 is 66.630325
weight of 1 is 31.978980
weight of 2 is -10.177778
weight of 3 is -4.000000
used!
weight of 0 is 66.638846
weight of 1 is 31.983921
weight of 2 is -10.177778
weight of 3 is -3.000000
used!
deny
deny
weight of 0 is 66.647292
weight of 1 is 31.990046
weight of 2 is -10.177778
weight of 3 is -2.000000
used!
weight of 0 is 66.655738
weight of 1 is 31.996171
weight of 2 is -10.177778
weight of 3 is -1.000000
used!
deny
deny
weight of 0 is 66.664198
weight of 1 is 31.997373
weight of 2 is -10.177778
weight of 3 is 0.000000
used!
weight of 0 is 66.672659
weight of 1 is 31.998575
weight of 2 is -10.177778
weight of 3 is 1.000000
used!
accept
accept
weight of 0 is 66.681180
weight of 1 is 32.003516
weight of 2 is -10.177778
weight of 3 is 2.000000
used!
weight of 0 is 66.689701
weight of 1 is 32.008457
weight of 2 is -10.177778
weight of 3 is 3.000000
used!
accept
accept
weight of 0 is 66.698147
weight of 1 is 32.014582
weight of 2 is -10.177778
weight of 3 is 4.000000
used!
weight of 0 is 66.706593
weight of 1 is 32.020707
weight of 2 is -10.177778
weight of 3 is 5.000000
used!
accept
accept
weight of 0 is 66.715054
weight of 1 is 32.021909
weight of 2 is -10.177778
weight of 3 is 6.000000
used!
weight of 0 is 66.723515
weight of 1 is 32.023112
weight of 2 is -10.177778
weight of 3 is 7.000000
used!
accept
accept
accept
accept
accept
accept
accept
accept
accept
accept
accept
accept
accept
accept
accept
accept
accept
accept
accept
accept
accept
accept
accept
accept
accept
accept
accept
accept
accept
accept
accept
accept
accept
accept
accept
accept
accept
accept
accept
accept
accept
accept
accept
accept
accept
accept
accept
accept
accept
accept
accept
accept
accept
accept
accept
accept
weight of 0 is 66.690606
weight of 1 is 26.512237
weight of 2 is -10.266667
weight of 3 is 6.000000
not used!
accept
accept
weight of 0 is 66.675480
weight of 1 is 22.101002
weight of 2 is -10.266667
weight of 3 is 5.000000
not used!
accept
accept
accept
accept
accept
accept
accept
accept
accept
accept
accept
accept
accept
accept
accept
accept
accept
accept
accept
accept
accept
accept
accept
accept
accept
accept
accept
accept
weight of 0 is 66.101889
weight of 1 is 20.669033
weight of 2 is -10.266667
weight of 3 is 4.000000
not used!
weight of 0 is 65.510873
weight of 1 is 19.237085
weight of 2 is -10.266667
weight of 3 is 3.000000
not used!
accept
accept
accept
accept
accept
accept
accept
accept
accept
accept
weight of 0 is 65.503340
weight of 1 is 16.403336
weight of 2 is -10.266667
weight of 3 is 2.000000
not used!
accept
accept
accept
accept
accept
accept
accept
accept
accept
accept
accept
accept
accept
accept
weight of 0 is 64.912318
weight of 1 is 16.403315
weight of 2 is -10.266667
weight of 3 is 1.000000
not used!
accept
accept
weight of 0 is 64.904785
weight of 1 is 13.569209
weight of 2 is -10.266667
weight of 3 is 0.000000
not used!
accept
accept
accept
accept
weight of 0 is 64.897253
weight of 1 is 10.735004
weight of 2 is -10.266667
weight of 3 is -1.000000
not used!
accept
accept
accept
accept
accept
accept
weight of 0 is 64.306229
weight of 1 is 10.734983
weight of 2 is -10.266667
weight of 3 is -2.000000
not used!
deny
deny
weight of 0 is 63.715204
weight of 1 is 10.734962
weight of 2 is -10.266667
weight of 3 is -3.000000
not used!
accept
accept
accept
accept
accept
accept
weight of 0 is 63.124177
weight of 1 is 10.734941
weight of 2 is -10.266667
weight of 3 is -4.000000
not used!
accept
accept
accept
accept
accept
accept
accept
accept
accept
accept
accept
accept
accept
accept
accept
accept
accept
accept
weight of 0 is 62.533149
weight of 1 is 10.734920
weight of 2 is -10.266667
weight of 3 is -5.000000
not used!
accept
accept
accept
accept
accept
accept
accept
accept
weight of 0 is 61.942118
weight of 1 is 10.734899
weight of 2 is -10.266667
weight of 3 is -6.000000
not used!
accept
accept
accept
accept
weight of 0 is 61.934587
weight of 1 is 7.899825
weight of 2 is -10.977778
weight of 3 is -7.000000
not used!
accept
accept
accept
accept
accept
accept
accept
accept
accept
accept
accept
accept
accept
accept
accept
accept
weight of 0 is 61.926064
weight of 1 is 7.894847
weight of 2 is -10.977778
weight of 3 is -8.000000
not used!
deny
deny
weight of 0 is 61.917617
weight of 1 is 7.888722
weight of 2 is -10.977778
weight of 3 is -9.000000
not used!
accept
accept
accept
accept
accept
accept
accept
accept
accept
accept
weight of 0 is 61.912395
weight of 1 is 7.082518
weight of 2 is -11.333333
weight of 3 is -10.000000
not used!
accept
accept
weight of 0 is 61.897269
weight of 1 is 6.557883
weight of 2 is -11.333333
weight of 3 is -11.000000
not used!
accept
accept
weight of 0 is 61.873929
weight of 1 is 3.426804
weight of 2 is -12.044444
weight of 3 is -12.000000
not used!
weight of 0 is 61.850590
weight of 1 is 3.426630
weight of 2 is -12.400000
weight of 3 is -13.000000
not used!
weight of 0 is 61.828580
weight of 1 is 3.318533
weight of 2 is -13.111111
weight of 3 is -14.000000
not used!
accept
accept
accept
accept
weight of 0 is 61.774262
weight of 1 is -0.133123
weight of 2 is -13.111111
weight of 3 is -15.000000
not used!
accept
accept
accept
accept
weight of 0 is 61.746984
weight of 1 is -0.133136
weight of 2 is -13.511111
weight of 3 is -16.000000
not used!
accept
accept
weight of 0 is 61.731858
weight of 1 is -3.584722
weight of 2 is -13.511111
weight of 3 is -17.000000
not used!
weight of 0 is 61.704581
weight of 1 is -7.036194
weight of 2 is -13.866667
weight of 3 is -18.000000
not used!
weight of 0 is 61.689455
weight of 1 is -12.478555
weight of 2 is -13.866667
weight of 3 is -19.000000
not used!
weight of 0 is 61.662180
weight of 1 is -17.920713
weight of 2 is -14.577778
weight of 3 is -20.000000
not used!
weight of 0 is 61.647054
weight of 1 is -23.362439
weight of 2 is -14.577778
weight of 3 is -21.000000
not used!
deny
deny
accept
accept
weight of 0 is 62.233240
weight of 1 is -22.337255
weight of 2 is -14.577778
weight of 3 is -20.000000
used!
weight of 0 is 62.819427
weight of 1 is -21.312071
weight of 2 is -14.577778
weight of 3 is -19.000000
used!
accept
accept
accept
accept
accept
accept
accept
accept
accept
accept
deny
deny
weight of 0 is 62.804301
weight of 1 is -21.312334
weight of 2 is -14.577778
weight of 3 is -20.000000
not used!
accept
accept
weight of 0 is 62.789175
weight of 1 is -21.836255
weight of 2 is -14.577778
weight of 3 is -21.000000
not used!
Exiting @ tick 14372548000 because exiting with last active thread context
