
---------- Begin Simulation Statistics ----------
final_tick                                86794637000                       # Number of ticks from beginning of simulation (restored from checkpoints and never reset)
host_inst_rate                                 135266                       # Simulator instruction rate (inst/s)
host_mem_usage                                 753716                       # Number of bytes of host memory used
host_op_rate                                   245817                       # Simulator op (including micro ops) rate (op/s)
host_seconds                                   739.29                       # Real time elapsed on the host
host_tick_rate                              117403261                       # Simulator tick rate (ticks/s)
sim_freq                                 1000000000000                       # Frequency of simulated ticks
sim_insts                                   100000001                       # Number of instructions simulated
sim_ops                                     181729532                       # Number of ops (including micro ops) simulated
sim_seconds                                  0.086795                       # Number of seconds simulated
sim_ticks                                 86794637000                       # Number of ticks simulated
system.clk_domain.clock                          1000                       # Clock period in ticks
system.cpu.apic_clk_domain.clock                16000                       # Clock period in ticks
system.cpu.branchPred.BTBCorrect                    0                       # Number of correct BTB predictions (this stat may not work properly.
system.cpu.branchPred.BTBHitPct              0.000000                       # BTB Hit Percentage
system.cpu.branchPred.BTBHits                       0                       # Number of BTB hits
system.cpu.branchPred.BTBLookups             20752829                       # Number of BTB lookups
system.cpu.branchPred.RASInCorrect              37895                       # Number of incorrect RAS predictions.
system.cpu.branchPred.condIncorrect           1863551                       # Number of conditional branches incorrect
system.cpu.branchPred.condPredicted          23102810                       # Number of conditional branches predicted
system.cpu.branchPred.indirectHits           10006241                       # Number of indirect target hits.
system.cpu.branchPred.indirectLookups        20752829                       # Number of indirect predictor lookups.
system.cpu.branchPred.indirectMisses         10746588                       # Number of indirect misses.
system.cpu.branchPred.lookups                23102810                       # Number of BP lookups
system.cpu.branchPred.usedRAS                  228931                       # Number of times the RAS was used to get a target.
system.cpu.branchPredindirectMispredicted      1356951                       # Number of mispredicted indirect branches.
system.cpu.cc_regfile_reads                 126591931                       # number of cc regfile reads
system.cpu.cc_regfile_writes                 99690464                       # number of cc regfile writes
system.cpu.commit.amos                              0                       # Number of atomic instructions committed
system.cpu.commit.branchMispredicts           1863668                       # The number of times a branch was mispredicted
system.cpu.commit.branches                   15783777                       # Number of branches committed
system.cpu.commit.bw_lim_events              11346892                       # number cycles where commit BW limit reached
system.cpu.commit.commitNonSpecStalls             713                       # The number of times commit has been forced to stall to communicate backwards
system.cpu.commit.commitSquashedInsts        52739977                       # The number of squashed insts skipped by commit
system.cpu.commit.committedInsts            100000001                       # Number of instructions committed
system.cpu.commit.committedOps              181729532                       # Number of ops (including micro ops) committed
system.cpu.commit.committed_per_cycle::samples     77985061                       # Number of insts commited each cycle
system.cpu.commit.committed_per_cycle::mean     2.330312                       # Number of insts commited each cycle
system.cpu.commit.committed_per_cycle::stdev     2.842811                       # Number of insts commited each cycle
system.cpu.commit.committed_per_cycle::underflows            0      0.00%      0.00% # Number of insts commited each cycle
system.cpu.commit.committed_per_cycle::0     29354992     37.64%     37.64% # Number of insts commited each cycle
system.cpu.commit.committed_per_cycle::1     16504569     21.16%     58.81% # Number of insts commited each cycle
system.cpu.commit.committed_per_cycle::2      5923039      7.60%     66.40% # Number of insts commited each cycle
system.cpu.commit.committed_per_cycle::3      5583188      7.16%     73.56% # Number of insts commited each cycle
system.cpu.commit.committed_per_cycle::4      4287641      5.50%     79.06% # Number of insts commited each cycle
system.cpu.commit.committed_per_cycle::5      2345899      3.01%     82.07% # Number of insts commited each cycle
system.cpu.commit.committed_per_cycle::6      1497761      1.92%     83.99% # Number of insts commited each cycle
system.cpu.commit.committed_per_cycle::7      1141080      1.46%     85.45% # Number of insts commited each cycle
system.cpu.commit.committed_per_cycle::8     11346892     14.55%    100.00% # Number of insts commited each cycle
system.cpu.commit.committed_per_cycle::overflows            0      0.00%    100.00% # Number of insts commited each cycle
system.cpu.commit.committed_per_cycle::min_value            0                       # Number of insts commited each cycle
system.cpu.commit.committed_per_cycle::max_value            8                       # Number of insts commited each cycle
system.cpu.commit.committed_per_cycle::total     77985061                       # Number of insts commited each cycle
system.cpu.commit.fp_insts                     614173                       # Number of committed floating point instructions.
system.cpu.commit.function_calls               134095                       # Number of function calls committed.
system.cpu.commit.int_insts                 181113105                       # Number of committed integer instructions.
system.cpu.commit.loads                      25443115                       # Number of loads committed
system.cpu.commit.membars                          80                       # Number of memory barriers committed
system.cpu.commit.op_class_0::No_OpClass       525203      0.29%      0.29% # Class of committed instruction
system.cpu.commit.op_class_0::IntAlu        139580324     76.81%     77.10% # Class of committed instruction
system.cpu.commit.op_class_0::IntMult         2035587      1.12%     78.22% # Class of committed instruction
system.cpu.commit.op_class_0::IntDiv             4403      0.00%     78.22% # Class of committed instruction
system.cpu.commit.op_class_0::FloatAdd          10087      0.01%     78.22% # Class of committed instruction
system.cpu.commit.op_class_0::FloatCmp              0      0.00%     78.22% # Class of committed instruction
system.cpu.commit.op_class_0::FloatCvt            880      0.00%     78.22% # Class of committed instruction
system.cpu.commit.op_class_0::FloatMult             0      0.00%     78.22% # Class of committed instruction
system.cpu.commit.op_class_0::FloatMultAcc            0      0.00%     78.22% # Class of committed instruction
system.cpu.commit.op_class_0::FloatDiv              0      0.00%     78.22% # Class of committed instruction
system.cpu.commit.op_class_0::FloatMisc             0      0.00%     78.22% # Class of committed instruction
system.cpu.commit.op_class_0::FloatSqrt             0      0.00%     78.22% # Class of committed instruction
system.cpu.commit.op_class_0::SimdAdd           10460      0.01%     78.23% # Class of committed instruction
system.cpu.commit.op_class_0::SimdAddAcc            0      0.00%     78.23% # Class of committed instruction
system.cpu.commit.op_class_0::SimdAlu             392      0.00%     78.23% # Class of committed instruction
system.cpu.commit.op_class_0::SimdCmp               0      0.00%     78.23% # Class of committed instruction
system.cpu.commit.op_class_0::SimdCvt             378      0.00%     78.23% # Class of committed instruction
system.cpu.commit.op_class_0::SimdMisc          20122      0.01%     78.24% # Class of committed instruction
system.cpu.commit.op_class_0::SimdMult              0      0.00%     78.24% # Class of committed instruction
system.cpu.commit.op_class_0::SimdMultAcc            0      0.00%     78.24% # Class of committed instruction
system.cpu.commit.op_class_0::SimdShift            78      0.00%     78.24% # Class of committed instruction
system.cpu.commit.op_class_0::SimdShiftAcc            0      0.00%     78.24% # Class of committed instruction
system.cpu.commit.op_class_0::SimdDiv               0      0.00%     78.24% # Class of committed instruction
system.cpu.commit.op_class_0::SimdSqrt              0      0.00%     78.24% # Class of committed instruction
system.cpu.commit.op_class_0::SimdFloatAdd          207      0.00%     78.24% # Class of committed instruction
system.cpu.commit.op_class_0::SimdFloatAlu            0      0.00%     78.24% # Class of committed instruction
system.cpu.commit.op_class_0::SimdFloatCmp            0      0.00%     78.24% # Class of committed instruction
system.cpu.commit.op_class_0::SimdFloatCvt          207      0.00%     78.24% # Class of committed instruction
system.cpu.commit.op_class_0::SimdFloatDiv            0      0.00%     78.24% # Class of committed instruction
system.cpu.commit.op_class_0::SimdFloatMisc            0      0.00%     78.24% # Class of committed instruction
system.cpu.commit.op_class_0::SimdFloatMult            0      0.00%     78.24% # Class of committed instruction
system.cpu.commit.op_class_0::SimdFloatMultAcc            0      0.00%     78.24% # Class of committed instruction
system.cpu.commit.op_class_0::SimdFloatSqrt            0      0.00%     78.24% # Class of committed instruction
system.cpu.commit.op_class_0::SimdReduceAdd            0      0.00%     78.24% # Class of committed instruction
system.cpu.commit.op_class_0::SimdReduceAlu            0      0.00%     78.24% # Class of committed instruction
system.cpu.commit.op_class_0::SimdReduceCmp            0      0.00%     78.24% # Class of committed instruction
system.cpu.commit.op_class_0::SimdFloatReduceAdd            0      0.00%     78.24% # Class of committed instruction
system.cpu.commit.op_class_0::SimdFloatReduceCmp            0      0.00%     78.24% # Class of committed instruction
system.cpu.commit.op_class_0::SimdAes               0      0.00%     78.24% # Class of committed instruction
system.cpu.commit.op_class_0::SimdAesMix            0      0.00%     78.24% # Class of committed instruction
system.cpu.commit.op_class_0::SimdSha1Hash            0      0.00%     78.24% # Class of committed instruction
system.cpu.commit.op_class_0::SimdSha1Hash2            0      0.00%     78.24% # Class of committed instruction
system.cpu.commit.op_class_0::SimdSha256Hash            0      0.00%     78.24% # Class of committed instruction
system.cpu.commit.op_class_0::SimdSha256Hash2            0      0.00%     78.24% # Class of committed instruction
system.cpu.commit.op_class_0::SimdShaSigma2            0      0.00%     78.24% # Class of committed instruction
system.cpu.commit.op_class_0::SimdShaSigma3            0      0.00%     78.24% # Class of committed instruction
system.cpu.commit.op_class_0::SimdPredAlu            0      0.00%     78.24% # Class of committed instruction
system.cpu.commit.op_class_0::MemRead        25038906     13.78%     92.02% # Class of committed instruction
system.cpu.commit.op_class_0::MemWrite       13940603      7.67%     99.69% # Class of committed instruction
system.cpu.commit.op_class_0::FloatMemRead       404209      0.22%     99.91% # Class of committed instruction
system.cpu.commit.op_class_0::FloatMemWrite       157486      0.09%    100.00% # Class of committed instruction
system.cpu.commit.op_class_0::IprAccess             0      0.00%    100.00% # Class of committed instruction
system.cpu.commit.op_class_0::InstPrefetch            0      0.00%    100.00% # Class of committed instruction
system.cpu.commit.op_class_0::total         181729532                       # Class of committed instruction
system.cpu.commit.refs                       39541204                       # Number of memory references committed
system.cpu.commit.swp_count                         0                       # Number of s/w prefetches committed
system.cpu.commit.vec_insts                         0                       # Number of committed Vector instructions.
system.cpu.committedInsts                   100000001                       # Number of Instructions Simulated
system.cpu.committedOps                     181729532                       # Number of Ops (including micro ops) Simulated
system.cpu.cpi                               0.867946                       # CPI: Cycles Per Instruction
system.cpu.cpi_total                         0.867946                       # CPI: Total CPI of All Threads
system.cpu.dcache.ReadReq_accesses::.cpu.data     26224177                       # number of ReadReq accesses(hits+misses)
system.cpu.dcache.ReadReq_accesses::total     26224177                       # number of ReadReq accesses(hits+misses)
system.cpu.dcache.ReadReq_avg_miss_latency::.cpu.data 80559.477521                       # average ReadReq miss latency
system.cpu.dcache.ReadReq_avg_miss_latency::total 80559.477521                       # average ReadReq miss latency
system.cpu.dcache.ReadReq_avg_mshr_miss_latency::.cpu.data 87161.730680                       # average ReadReq mshr miss latency
system.cpu.dcache.ReadReq_avg_mshr_miss_latency::total 87161.730680                       # average ReadReq mshr miss latency
system.cpu.dcache.ReadReq_hits::.cpu.data     26207717                       # number of ReadReq hits
system.cpu.dcache.ReadReq_hits::total        26207717                       # number of ReadReq hits
system.cpu.dcache.ReadReq_miss_latency::.cpu.data   1326009000                       # number of ReadReq miss cycles
system.cpu.dcache.ReadReq_miss_latency::total   1326009000                       # number of ReadReq miss cycles
system.cpu.dcache.ReadReq_miss_rate::.cpu.data     0.000628                       # miss rate for ReadReq accesses
system.cpu.dcache.ReadReq_miss_rate::total     0.000628                       # miss rate for ReadReq accesses
system.cpu.dcache.ReadReq_misses::.cpu.data        16460                       # number of ReadReq misses
system.cpu.dcache.ReadReq_misses::total         16460                       # number of ReadReq misses
system.cpu.dcache.ReadReq_mshr_hits::.cpu.data        12138                       # number of ReadReq MSHR hits
system.cpu.dcache.ReadReq_mshr_hits::total        12138                       # number of ReadReq MSHR hits
system.cpu.dcache.ReadReq_mshr_miss_latency::.cpu.data    376713000                       # number of ReadReq MSHR miss cycles
system.cpu.dcache.ReadReq_mshr_miss_latency::total    376713000                       # number of ReadReq MSHR miss cycles
system.cpu.dcache.ReadReq_mshr_miss_rate::.cpu.data     0.000165                       # mshr miss rate for ReadReq accesses
system.cpu.dcache.ReadReq_mshr_miss_rate::total     0.000165                       # mshr miss rate for ReadReq accesses
system.cpu.dcache.ReadReq_mshr_misses::.cpu.data         4322                       # number of ReadReq MSHR misses
system.cpu.dcache.ReadReq_mshr_misses::total         4322                       # number of ReadReq MSHR misses
system.cpu.dcache.WriteReq_accesses::.cpu.data     14098296                       # number of WriteReq accesses(hits+misses)
system.cpu.dcache.WriteReq_accesses::total     14098296                       # number of WriteReq accesses(hits+misses)
system.cpu.dcache.WriteReq_avg_miss_latency::.cpu.data 99262.127219                       # average WriteReq miss latency
system.cpu.dcache.WriteReq_avg_miss_latency::total 99262.127219                       # average WriteReq miss latency
system.cpu.dcache.WriteReq_avg_mshr_miss_latency::.cpu.data 97343.635553                       # average WriteReq mshr miss latency
system.cpu.dcache.WriteReq_avg_mshr_miss_latency::total 97343.635553                       # average WriteReq mshr miss latency
system.cpu.dcache.WriteReq_hits::.cpu.data     14096606                       # number of WriteReq hits
system.cpu.dcache.WriteReq_hits::total       14096606                       # number of WriteReq hits
system.cpu.dcache.WriteReq_miss_latency::.cpu.data    167752995                       # number of WriteReq miss cycles
system.cpu.dcache.WriteReq_miss_latency::total    167752995                       # number of WriteReq miss cycles
system.cpu.dcache.WriteReq_miss_rate::.cpu.data     0.000120                       # miss rate for WriteReq accesses
system.cpu.dcache.WriteReq_miss_rate::total     0.000120                       # miss rate for WriteReq accesses
system.cpu.dcache.WriteReq_misses::.cpu.data         1690                       # number of WriteReq misses
system.cpu.dcache.WriteReq_misses::total         1690                       # number of WriteReq misses
system.cpu.dcache.WriteReq_mshr_hits::.cpu.data            8                       # number of WriteReq MSHR hits
system.cpu.dcache.WriteReq_mshr_hits::total            8                       # number of WriteReq MSHR hits
system.cpu.dcache.WriteReq_mshr_miss_latency::.cpu.data    163731995                       # number of WriteReq MSHR miss cycles
system.cpu.dcache.WriteReq_mshr_miss_latency::total    163731995                       # number of WriteReq MSHR miss cycles
system.cpu.dcache.WriteReq_mshr_miss_rate::.cpu.data     0.000119                       # mshr miss rate for WriteReq accesses
system.cpu.dcache.WriteReq_mshr_miss_rate::total     0.000119                       # mshr miss rate for WriteReq accesses
system.cpu.dcache.WriteReq_mshr_misses::.cpu.data         1682                       # number of WriteReq MSHR misses
system.cpu.dcache.WriteReq_mshr_misses::total         1682                       # number of WriteReq MSHR misses
system.cpu.dcache.avg_blocked_cycles::no_mshrs    51.068441                       # average number of cycles each access was blocked
system.cpu.dcache.avg_blocked_cycles::no_targets    14.666667                       # average number of cycles each access was blocked
system.cpu.dcache.blocked::no_mshrs               263                       # number of cycles access was blocked
system.cpu.dcache.blocked::no_targets               6                       # number of cycles access was blocked
system.cpu.dcache.blocked_cycles::no_mshrs        13431                       # number of cycles access was blocked
system.cpu.dcache.blocked_cycles::no_targets           88                       # number of cycles access was blocked
system.cpu.dcache.demand_accesses::.cpu.data     40322473                       # number of demand (read+write) accesses
system.cpu.dcache.demand_accesses::total     40322473                       # number of demand (read+write) accesses
system.cpu.dcache.demand_avg_miss_latency::.cpu.data 82300.936364                       # average overall miss latency
system.cpu.dcache.demand_avg_miss_latency::total 82300.936364                       # average overall miss latency
system.cpu.dcache.demand_avg_mshr_miss_latency::.cpu.data 90014.156396                       # average overall mshr miss latency
system.cpu.dcache.demand_avg_mshr_miss_latency::total 90014.156396                       # average overall mshr miss latency
system.cpu.dcache.demand_hits::.cpu.data     40304323                       # number of demand (read+write) hits
system.cpu.dcache.demand_hits::total         40304323                       # number of demand (read+write) hits
system.cpu.dcache.demand_miss_latency::.cpu.data   1493761995                       # number of demand (read+write) miss cycles
system.cpu.dcache.demand_miss_latency::total   1493761995                       # number of demand (read+write) miss cycles
system.cpu.dcache.demand_miss_rate::.cpu.data     0.000450                       # miss rate for demand accesses
system.cpu.dcache.demand_miss_rate::total     0.000450                       # miss rate for demand accesses
system.cpu.dcache.demand_misses::.cpu.data        18150                       # number of demand (read+write) misses
system.cpu.dcache.demand_misses::total          18150                       # number of demand (read+write) misses
system.cpu.dcache.demand_mshr_hits::.cpu.data        12146                       # number of demand (read+write) MSHR hits
system.cpu.dcache.demand_mshr_hits::total        12146                       # number of demand (read+write) MSHR hits
system.cpu.dcache.demand_mshr_miss_latency::.cpu.data    540444995                       # number of demand (read+write) MSHR miss cycles
system.cpu.dcache.demand_mshr_miss_latency::total    540444995                       # number of demand (read+write) MSHR miss cycles
system.cpu.dcache.demand_mshr_miss_rate::.cpu.data     0.000149                       # mshr miss rate for demand accesses
system.cpu.dcache.demand_mshr_miss_rate::total     0.000149                       # mshr miss rate for demand accesses
system.cpu.dcache.demand_mshr_misses::.cpu.data         6004                       # number of demand (read+write) MSHR misses
system.cpu.dcache.demand_mshr_misses::total         6004                       # number of demand (read+write) MSHR misses
system.cpu.dcache.overall_accesses::.cpu.data     40322473                       # number of overall (read+write) accesses
system.cpu.dcache.overall_accesses::total     40322473                       # number of overall (read+write) accesses
system.cpu.dcache.overall_avg_miss_latency::.cpu.data 82300.936364                       # average overall miss latency
system.cpu.dcache.overall_avg_miss_latency::total 82300.936364                       # average overall miss latency
system.cpu.dcache.overall_avg_mshr_miss_latency::.cpu.data 90014.156396                       # average overall mshr miss latency
system.cpu.dcache.overall_avg_mshr_miss_latency::total 90014.156396                       # average overall mshr miss latency
system.cpu.dcache.overall_hits::.cpu.data     40304323                       # number of overall hits
system.cpu.dcache.overall_hits::total        40304323                       # number of overall hits
system.cpu.dcache.overall_miss_latency::.cpu.data   1493761995                       # number of overall miss cycles
system.cpu.dcache.overall_miss_latency::total   1493761995                       # number of overall miss cycles
system.cpu.dcache.overall_miss_rate::.cpu.data     0.000450                       # miss rate for overall accesses
system.cpu.dcache.overall_miss_rate::total     0.000450                       # miss rate for overall accesses
system.cpu.dcache.overall_misses::.cpu.data        18150                       # number of overall misses
system.cpu.dcache.overall_misses::total         18150                       # number of overall misses
system.cpu.dcache.overall_mshr_hits::.cpu.data        12146                       # number of overall MSHR hits
system.cpu.dcache.overall_mshr_hits::total        12146                       # number of overall MSHR hits
system.cpu.dcache.overall_mshr_miss_latency::.cpu.data    540444995                       # number of overall MSHR miss cycles
system.cpu.dcache.overall_mshr_miss_latency::total    540444995                       # number of overall MSHR miss cycles
system.cpu.dcache.overall_mshr_miss_rate::.cpu.data     0.000149                       # mshr miss rate for overall accesses
system.cpu.dcache.overall_mshr_miss_rate::total     0.000149                       # mshr miss rate for overall accesses
system.cpu.dcache.overall_mshr_misses::.cpu.data         6004                       # number of overall MSHR misses
system.cpu.dcache.overall_mshr_misses::total         6004                       # number of overall MSHR misses
system.cpu.dcache.pwrStateResidencyTicks::UNDEFINED  86794637000                       # Cumulative time (in ticks) in various power states
system.cpu.dcache.replacements                   4975                       # number of replacements
system.cpu.dcache.tags.age_task_id_blocks_1024::3            4                       # Occupied blocks per task id
system.cpu.dcache.tags.age_task_id_blocks_1024::4         1020                       # Occupied blocks per task id
system.cpu.dcache.tags.avg_refs           6719.507751                       # Average number of references to valid blocks.
system.cpu.dcache.tags.data_accesses         80650945                       # Number of data accesses
system.cpu.dcache.tags.occ_blocks::.cpu.data  1022.805068                       # Average occupied blocks per requestor
system.cpu.dcache.tags.occ_percent::.cpu.data     0.998833                       # Average percentage of cache occupancy
system.cpu.dcache.tags.occ_percent::total     0.998833                       # Average percentage of cache occupancy
system.cpu.dcache.tags.occ_task_id_blocks::1024         1024                       # Occupied blocks per task id
system.cpu.dcache.tags.occ_task_id_percent::1024            1                       # Percentage of cache occupancy per task id
system.cpu.dcache.tags.pwrStateResidencyTicks::UNDEFINED  86794637000                       # Cumulative time (in ticks) in various power states
system.cpu.dcache.tags.sampled_refs              5999                       # Sample count of references to valid blocks.
system.cpu.dcache.tags.tag_accesses          80650945                       # Number of tag accesses
system.cpu.dcache.tags.tagsinuse          1022.805068                       # Cycle average of tags in use
system.cpu.dcache.tags.total_refs            40310327                       # Total number of references to valid blocks.
system.cpu.dcache.tags.warmup_cycle            244000                       # Cycle when the warmup percentage was hit.
system.cpu.dcache.writebacks::.writebacks         1674                       # number of writebacks
system.cpu.dcache.writebacks::total              1674                       # number of writebacks
system.cpu.decode.BlockedCycles               9915036                       # Number of cycles decode is blocked
system.cpu.decode.DecodedInsts              258808137                       # Number of instructions handled by decode
system.cpu.decode.IdleCycles                 34517019                       # Number of cycles decode is idle
system.cpu.decode.RunCycles                  36549934                       # Number of cycles decode is running
system.cpu.decode.SquashCycles                1901851                       # Number of cycles decode is squashing
system.cpu.decode.UnblockCycles               2852221                       # Number of cycles decode is unblocking
system.cpu.dtb.rdAccesses                    30961206                       # TLB accesses on read requests
system.cpu.dtb.rdMisses                         39421                       # TLB misses on read requests
system.cpu.dtb.walker.pwrStateResidencyTicks::UNDEFINED  86794637000                       # Cumulative time (in ticks) in various power states
system.cpu.dtb.wrAccesses                    15717050                       # TLB accesses on write requests
system.cpu.dtb.wrMisses                         15955                       # TLB misses on write requests
system.cpu.dtb_walker_cache.avg_blocked_cycles::no_mshrs          nan                       # average number of cycles each access was blocked
system.cpu.dtb_walker_cache.avg_blocked_cycles::no_targets          nan                       # average number of cycles each access was blocked
system.cpu.dtb_walker_cache.blocked::no_mshrs            0                       # number of cycles access was blocked
system.cpu.dtb_walker_cache.blocked::no_targets            0                       # number of cycles access was blocked
system.cpu.dtb_walker_cache.blocked_cycles::no_mshrs            0                       # number of cycles access was blocked
system.cpu.dtb_walker_cache.blocked_cycles::no_targets            0                       # number of cycles access was blocked
system.cpu.dtb_walker_cache.pwrStateResidencyTicks::UNDEFINED  86794637000                       # Cumulative time (in ticks) in various power states
system.cpu.dtb_walker_cache.replacements            0                       # number of replacements
system.cpu.dtb_walker_cache.tags.avg_refs          nan                       # Average number of references to valid blocks.
system.cpu.dtb_walker_cache.tags.data_accesses            0                       # Number of data accesses
system.cpu.dtb_walker_cache.tags.pwrStateResidencyTicks::UNDEFINED  86794637000                       # Cumulative time (in ticks) in various power states
system.cpu.dtb_walker_cache.tags.sampled_refs            0                       # Sample count of references to valid blocks.
system.cpu.dtb_walker_cache.tags.tag_accesses            0                       # Number of tag accesses
system.cpu.dtb_walker_cache.tags.tagsinuse            0                       # Cycle average of tags in use
system.cpu.dtb_walker_cache.tags.total_refs            0                       # Total number of references to valid blocks.
system.cpu.dtb_walker_cache.tags.warmup_cycle            0                       # Cycle when the warmup percentage was hit.
system.cpu.fetch.Branches                    23102810                       # Number of branches that fetch encountered
system.cpu.fetch.CacheLines                  20589276                       # Number of cache lines fetched
system.cpu.fetch.Cycles                      47321742                       # Number of cycles fetch has run and was not squashing or blocked
system.cpu.fetch.IcacheSquashes                721942                       # Number of outstanding Icache misses that were squashed
system.cpu.fetch.IcacheWaitRetryStallCycles          131                       # Number of stall cycles due to full MSHR
system.cpu.fetch.Insts                      150185057                       # Number of instructions fetch has processed
system.cpu.fetch.MiscStallCycles                  127                       # Number of cycles fetch has spent waiting on interrupts, or bad addresses, or out of MSHRs
system.cpu.fetch.PendingQuiesceStallCycles         4235                       # Number of stall cycles due to pending quiesce instructions
system.cpu.fetch.PendingTrapStallCycles          1186                       # Number of stall cycles due to pending traps
system.cpu.fetch.SquashCycles                 3803702                       # Number of cycles fetch has spent squashing
system.cpu.fetch.branchRate                  0.266178                       # Number of branch fetches per cycle
system.cpu.fetch.icacheStallCycles           36506789                       # Number of cycles fetch is stalled on an Icache miss
system.cpu.fetch.predictedBranches           10235172                       # Number of branches that fetch has predicted taken
system.cpu.fetch.rate                        1.730349                       # Number of inst fetches per cycle
system.cpu.fetch.rateDist::samples           85736061                       # Number of instructions fetched each cycle (Total)
system.cpu.fetch.rateDist::mean              3.135203                       # Number of instructions fetched each cycle (Total)
system.cpu.fetch.rateDist::stdev             3.524965                       # Number of instructions fetched each cycle (Total)
system.cpu.fetch.rateDist::underflows               0      0.00%      0.00% # Number of instructions fetched each cycle (Total)
system.cpu.fetch.rateDist::0                 42814182     49.94%     49.94% # Number of instructions fetched each cycle (Total)
system.cpu.fetch.rateDist::1                  2367251      2.76%     52.70% # Number of instructions fetched each cycle (Total)
system.cpu.fetch.rateDist::2                  1718611      2.00%     54.70% # Number of instructions fetched each cycle (Total)
system.cpu.fetch.rateDist::3                  2598952      3.03%     57.73% # Number of instructions fetched each cycle (Total)
system.cpu.fetch.rateDist::4                  4390241      5.12%     62.85% # Number of instructions fetched each cycle (Total)
system.cpu.fetch.rateDist::5                  2912839      3.40%     66.25% # Number of instructions fetched each cycle (Total)
system.cpu.fetch.rateDist::6                  3274523      3.82%     70.07% # Number of instructions fetched each cycle (Total)
system.cpu.fetch.rateDist::7                  1849327      2.16%     72.23% # Number of instructions fetched each cycle (Total)
system.cpu.fetch.rateDist::8                 23810135     27.77%    100.00% # Number of instructions fetched each cycle (Total)
system.cpu.fetch.rateDist::overflows                0      0.00%    100.00% # Number of instructions fetched each cycle (Total)
system.cpu.fetch.rateDist::min_value                0                       # Number of instructions fetched each cycle (Total)
system.cpu.fetch.rateDist::max_value                8                       # Number of instructions fetched each cycle (Total)
system.cpu.fetch.rateDist::total             85736061                       # Number of instructions fetched each cycle (Total)
system.cpu.fp_regfile_reads                    382477                       # number of floating regfile reads
system.cpu.fp_regfile_writes                   562519                       # number of floating regfile writes
system.cpu.icache.ReadReq_accesses::.cpu.inst     20589276                       # number of ReadReq accesses(hits+misses)
system.cpu.icache.ReadReq_accesses::total     20589276                       # number of ReadReq accesses(hits+misses)
system.cpu.icache.ReadReq_avg_miss_latency::.cpu.inst 25563.653078                       # average ReadReq miss latency
system.cpu.icache.ReadReq_avg_miss_latency::total 25563.653078                       # average ReadReq miss latency
system.cpu.icache.ReadReq_avg_mshr_miss_latency::.cpu.inst 25000.642738                       # average ReadReq mshr miss latency
system.cpu.icache.ReadReq_avg_mshr_miss_latency::total 25000.642738                       # average ReadReq mshr miss latency
system.cpu.icache.ReadReq_hits::.cpu.inst     19707072                       # number of ReadReq hits
system.cpu.icache.ReadReq_hits::total        19707072                       # number of ReadReq hits
system.cpu.icache.ReadReq_miss_latency::.cpu.inst  22552357000                       # number of ReadReq miss cycles
system.cpu.icache.ReadReq_miss_latency::total  22552357000                       # number of ReadReq miss cycles
system.cpu.icache.ReadReq_miss_rate::.cpu.inst     0.042848                       # miss rate for ReadReq accesses
system.cpu.icache.ReadReq_miss_rate::total     0.042848                       # miss rate for ReadReq accesses
system.cpu.icache.ReadReq_misses::.cpu.inst       882204                       # number of ReadReq misses
system.cpu.icache.ReadReq_misses::total        882204                       # number of ReadReq misses
system.cpu.icache.ReadReq_mshr_hits::.cpu.inst       101170                       # number of ReadReq MSHR hits
system.cpu.icache.ReadReq_mshr_hits::total       101170                       # number of ReadReq MSHR hits
system.cpu.icache.ReadReq_mshr_miss_latency::.cpu.inst  19526352000                       # number of ReadReq MSHR miss cycles
system.cpu.icache.ReadReq_mshr_miss_latency::total  19526352000                       # number of ReadReq MSHR miss cycles
system.cpu.icache.ReadReq_mshr_miss_rate::.cpu.inst     0.037934                       # mshr miss rate for ReadReq accesses
system.cpu.icache.ReadReq_mshr_miss_rate::total     0.037934                       # mshr miss rate for ReadReq accesses
system.cpu.icache.ReadReq_mshr_misses::.cpu.inst       781034                       # number of ReadReq MSHR misses
system.cpu.icache.ReadReq_mshr_misses::total       781034                       # number of ReadReq MSHR misses
system.cpu.icache.avg_blocked_cycles::no_mshrs    17.184211                       # average number of cycles each access was blocked
system.cpu.icache.avg_blocked_cycles::no_targets          322                       # average number of cycles each access was blocked
system.cpu.icache.blocked::no_mshrs                38                       # number of cycles access was blocked
system.cpu.icache.blocked::no_targets               2                       # number of cycles access was blocked
system.cpu.icache.blocked_cycles::no_mshrs          653                       # number of cycles access was blocked
system.cpu.icache.blocked_cycles::no_targets          644                       # number of cycles access was blocked
system.cpu.icache.demand_accesses::.cpu.inst     20589276                       # number of demand (read+write) accesses
system.cpu.icache.demand_accesses::total     20589276                       # number of demand (read+write) accesses
system.cpu.icache.demand_avg_miss_latency::.cpu.inst 25563.653078                       # average overall miss latency
system.cpu.icache.demand_avg_miss_latency::total 25563.653078                       # average overall miss latency
system.cpu.icache.demand_avg_mshr_miss_latency::.cpu.inst 25000.642738                       # average overall mshr miss latency
system.cpu.icache.demand_avg_mshr_miss_latency::total 25000.642738                       # average overall mshr miss latency
system.cpu.icache.demand_hits::.cpu.inst     19707072                       # number of demand (read+write) hits
system.cpu.icache.demand_hits::total         19707072                       # number of demand (read+write) hits
system.cpu.icache.demand_miss_latency::.cpu.inst  22552357000                       # number of demand (read+write) miss cycles
system.cpu.icache.demand_miss_latency::total  22552357000                       # number of demand (read+write) miss cycles
system.cpu.icache.demand_miss_rate::.cpu.inst     0.042848                       # miss rate for demand accesses
system.cpu.icache.demand_miss_rate::total     0.042848                       # miss rate for demand accesses
system.cpu.icache.demand_misses::.cpu.inst       882204                       # number of demand (read+write) misses
system.cpu.icache.demand_misses::total         882204                       # number of demand (read+write) misses
system.cpu.icache.demand_mshr_hits::.cpu.inst       101170                       # number of demand (read+write) MSHR hits
system.cpu.icache.demand_mshr_hits::total       101170                       # number of demand (read+write) MSHR hits
system.cpu.icache.demand_mshr_miss_latency::.cpu.inst  19526352000                       # number of demand (read+write) MSHR miss cycles
system.cpu.icache.demand_mshr_miss_latency::total  19526352000                       # number of demand (read+write) MSHR miss cycles
system.cpu.icache.demand_mshr_miss_rate::.cpu.inst     0.037934                       # mshr miss rate for demand accesses
system.cpu.icache.demand_mshr_miss_rate::total     0.037934                       # mshr miss rate for demand accesses
system.cpu.icache.demand_mshr_misses::.cpu.inst       781034                       # number of demand (read+write) MSHR misses
system.cpu.icache.demand_mshr_misses::total       781034                       # number of demand (read+write) MSHR misses
system.cpu.icache.overall_accesses::.cpu.inst     20589276                       # number of overall (read+write) accesses
system.cpu.icache.overall_accesses::total     20589276                       # number of overall (read+write) accesses
system.cpu.icache.overall_avg_miss_latency::.cpu.inst 25563.653078                       # average overall miss latency
system.cpu.icache.overall_avg_miss_latency::total 25563.653078                       # average overall miss latency
system.cpu.icache.overall_avg_mshr_miss_latency::.cpu.inst 25000.642738                       # average overall mshr miss latency
system.cpu.icache.overall_avg_mshr_miss_latency::total 25000.642738                       # average overall mshr miss latency
system.cpu.icache.overall_hits::.cpu.inst     19707072                       # number of overall hits
system.cpu.icache.overall_hits::total        19707072                       # number of overall hits
system.cpu.icache.overall_miss_latency::.cpu.inst  22552357000                       # number of overall miss cycles
system.cpu.icache.overall_miss_latency::total  22552357000                       # number of overall miss cycles
system.cpu.icache.overall_miss_rate::.cpu.inst     0.042848                       # miss rate for overall accesses
system.cpu.icache.overall_miss_rate::total     0.042848                       # miss rate for overall accesses
system.cpu.icache.overall_misses::.cpu.inst       882204                       # number of overall misses
system.cpu.icache.overall_misses::total        882204                       # number of overall misses
system.cpu.icache.overall_mshr_hits::.cpu.inst       101170                       # number of overall MSHR hits
system.cpu.icache.overall_mshr_hits::total       101170                       # number of overall MSHR hits
system.cpu.icache.overall_mshr_miss_latency::.cpu.inst  19526352000                       # number of overall MSHR miss cycles
system.cpu.icache.overall_mshr_miss_latency::total  19526352000                       # number of overall MSHR miss cycles
system.cpu.icache.overall_mshr_miss_rate::.cpu.inst     0.037934                       # mshr miss rate for overall accesses
system.cpu.icache.overall_mshr_miss_rate::total     0.037934                       # mshr miss rate for overall accesses
system.cpu.icache.overall_mshr_misses::.cpu.inst       781034                       # number of overall MSHR misses
system.cpu.icache.overall_mshr_misses::total       781034                       # number of overall MSHR misses
system.cpu.icache.pwrStateResidencyTicks::UNDEFINED  86794637000                       # Cumulative time (in ticks) in various power states
system.cpu.icache.replacements                 780772                       # number of replacements
system.cpu.icache.tags.age_task_id_blocks_1024::0           32                       # Occupied blocks per task id
system.cpu.icache.tags.age_task_id_blocks_1024::1           97                       # Occupied blocks per task id
system.cpu.icache.tags.age_task_id_blocks_1024::2          124                       # Occupied blocks per task id
system.cpu.icache.tags.age_task_id_blocks_1024::3            3                       # Occupied blocks per task id
system.cpu.icache.tags.avg_refs             26.232061                       # Average number of references to valid blocks.
system.cpu.icache.tags.data_accesses         41959585                       # Number of data accesses
system.cpu.icache.tags.occ_blocks::.cpu.inst   255.954440                       # Average occupied blocks per requestor
system.cpu.icache.tags.occ_percent::.cpu.inst     0.999822                       # Average percentage of cache occupancy
system.cpu.icache.tags.occ_percent::total     0.999822                       # Average percentage of cache occupancy
system.cpu.icache.tags.occ_task_id_blocks::1024          256                       # Occupied blocks per task id
system.cpu.icache.tags.occ_task_id_percent::1024            1                       # Percentage of cache occupancy per task id
system.cpu.icache.tags.pwrStateResidencyTicks::UNDEFINED  86794637000                       # Cumulative time (in ticks) in various power states
system.cpu.icache.tags.sampled_refs            781033                       # Sample count of references to valid blocks.
system.cpu.icache.tags.tag_accesses          41959585                       # Number of tag accesses
system.cpu.icache.tags.tagsinuse           255.954440                       # Cycle average of tags in use
system.cpu.icache.tags.total_refs            20488105                       # Total number of references to valid blocks.
system.cpu.icache.tags.warmup_cycle            108000                       # Cycle when the warmup percentage was hit.
system.cpu.icache.writebacks::.writebacks       780772                       # number of writebacks
system.cpu.icache.writebacks::total            780772                       # number of writebacks
system.cpu.idleCycles                         1058577                       # Total number of cycles that the CPU has spent unscheduled due to idling
system.cpu.iew.branchMispredicts              2213138                       # Number of branch mispredicts detected at execute
system.cpu.iew.exec_branches                 17343873                       # Number of branches executed
system.cpu.iew.exec_nop                             0                       # number of nop insts executed
system.cpu.iew.exec_rate                     2.423997                       # Inst execution rate
system.cpu.iew.exec_refs                     46671986                       # number of memory reference insts executed
system.cpu.iew.exec_stores                   15716396                       # Number of stores executed
system.cpu.iew.exec_swp                             0                       # number of swp insts executed
system.cpu.iew.iewBlockCycles                 5897711                       # Number of cycles IEW is blocking
system.cpu.iew.iewDispLoadInsts              34598601                       # Number of dispatched load instructions
system.cpu.iew.iewDispNonSpecInsts              53673                       # Number of dispatched non-speculative instructions
system.cpu.iew.iewDispSquashedInsts            107544                       # Number of squashed instructions skipped by dispatch
system.cpu.iew.iewDispStoreInsts             18907139                       # Number of dispatched store instructions
system.cpu.iew.iewDispatchedInsts           234469429                       # Number of instructions dispatched to IQ
system.cpu.iew.iewExecLoadInsts              30955590                       # Number of load instructions executed
system.cpu.iew.iewExecSquashedInsts           4272012                       # Number of squashed instructions skipped in execute
system.cpu.iew.iewExecutedInsts             210389949                       # Number of executed instructions
system.cpu.iew.iewIQFullEvents                    841                       # Number of times the IQ has become full, causing a stall
system.cpu.iew.iewIdleCycles                        0                       # Number of cycles IEW is idle
system.cpu.iew.iewLSQFullEvents                 36288                       # Number of times the LSQ has become full, causing a stall
system.cpu.iew.iewSquashCycles                1901851                       # Number of cycles IEW is squashing
system.cpu.iew.iewUnblockCycles                 37594                       # Number of cycles IEW is unblocking
system.cpu.iew.lsq.thread0.blockedLoads             0                       # Number of blocked loads due to partial load-store forwarding
system.cpu.iew.lsq.thread0.cacheBlocked           232                       # Number of times an access to memory failed due to the cache being blocked
system.cpu.iew.lsq.thread0.forwLoads          4696900                       # Number of loads that had data forwarded from stores
system.cpu.iew.lsq.thread0.ignoredResponses        26263                       # Number of memory responses ignored because the instruction is squashed
system.cpu.iew.lsq.thread0.invAddrLoads             0                       # Number of loads ignored due to an invalid address
system.cpu.iew.lsq.thread0.invAddrSwpfs             0                       # Number of software prefetches ignored due to an invalid address
system.cpu.iew.lsq.thread0.memOrderViolation        49094                       # Number of memory ordering violations
system.cpu.iew.lsq.thread0.rescheduledLoads          975                       # Number of loads that were rescheduled
system.cpu.iew.lsq.thread0.squashedLoads      9155486                       # Number of loads squashed
system.cpu.iew.lsq.thread0.squashedStores      4809050                       # Number of stores squashed
system.cpu.iew.memOrderViolationEvents          49094                       # Number of memory order violations
system.cpu.iew.predictedNotTakenIncorrect      1789549                       # Number of branches that were predicted not taken incorrectly
system.cpu.iew.predictedTakenIncorrect         423589                       # Number of branches that were predicted taken incorrectly
system.cpu.iew.wb_consumers                 243619676                       # num instructions consuming a value
system.cpu.iew.wb_count                     207909170                       # cumulative count of insts written-back
system.cpu.iew.wb_fanout                     0.641513                       # average fanout of values written-back
system.cpu.iew.wb_producers                 156285152                       # num instructions producing a value
system.cpu.iew.wb_rate                       2.395415                       # insts written-back per cycle
system.cpu.iew.wb_sent                      208866768                       # cumulative count of insts sent to commit
system.cpu.int_regfile_reads                329981936                       # number of integer regfile reads
system.cpu.int_regfile_writes               176425234                       # number of integer regfile writes
system.cpu.interrupts.pwrStateResidencyTicks::UNDEFINED  86794637000                       # Cumulative time (in ticks) in various power states
system.cpu.ipc                               1.152145                       # IPC: Instructions Per Cycle
system.cpu.ipc_total                         1.152145                       # IPC: Total IPC of All Threads
system.cpu.iq.FU_type_0::No_OpClass            940167      0.44%      0.44% # Type of FU issued
system.cpu.iq.FU_type_0::IntAlu             163148442     76.00%     76.44% # Type of FU issued
system.cpu.iq.FU_type_0::IntMult              2246775      1.05%     77.49% # Type of FU issued
system.cpu.iq.FU_type_0::IntDiv                  4843      0.00%     77.49% # Type of FU issued
system.cpu.iq.FU_type_0::FloatAdd               19983      0.01%     77.50% # Type of FU issued
system.cpu.iq.FU_type_0::FloatCmp                   0      0.00%     77.50% # Type of FU issued
system.cpu.iq.FU_type_0::FloatCvt                 904      0.00%     77.50% # Type of FU issued
system.cpu.iq.FU_type_0::FloatMult                  0      0.00%     77.50% # Type of FU issued
system.cpu.iq.FU_type_0::FloatMultAcc               0      0.00%     77.50% # Type of FU issued
system.cpu.iq.FU_type_0::FloatDiv                   0      0.00%     77.50% # Type of FU issued
system.cpu.iq.FU_type_0::FloatMisc                  0      0.00%     77.50% # Type of FU issued
system.cpu.iq.FU_type_0::FloatSqrt                  0      0.00%     77.50% # Type of FU issued
system.cpu.iq.FU_type_0::SimdAdd                10653      0.00%     77.50% # Type of FU issued
system.cpu.iq.FU_type_0::SimdAddAcc                 0      0.00%     77.50% # Type of FU issued
system.cpu.iq.FU_type_0::SimdAlu                  550      0.00%     77.50% # Type of FU issued
system.cpu.iq.FU_type_0::SimdCmp                    0      0.00%     77.50% # Type of FU issued
system.cpu.iq.FU_type_0::SimdCvt                  446      0.00%     77.50% # Type of FU issued
system.cpu.iq.FU_type_0::SimdMisc               25952      0.01%     77.52% # Type of FU issued
system.cpu.iq.FU_type_0::SimdMult                   0      0.00%     77.52% # Type of FU issued
system.cpu.iq.FU_type_0::SimdMultAcc                0      0.00%     77.52% # Type of FU issued
system.cpu.iq.FU_type_0::SimdShift                 81      0.00%     77.52% # Type of FU issued
system.cpu.iq.FU_type_0::SimdShiftAcc               0      0.00%     77.52% # Type of FU issued
system.cpu.iq.FU_type_0::SimdDiv                    0      0.00%     77.52% # Type of FU issued
system.cpu.iq.FU_type_0::SimdSqrt                   0      0.00%     77.52% # Type of FU issued
system.cpu.iq.FU_type_0::SimdFloatAdd             207      0.00%     77.52% # Type of FU issued
system.cpu.iq.FU_type_0::SimdFloatAlu               0      0.00%     77.52% # Type of FU issued
system.cpu.iq.FU_type_0::SimdFloatCmp               0      0.00%     77.52% # Type of FU issued
system.cpu.iq.FU_type_0::SimdFloatCvt             235      0.00%     77.52% # Type of FU issued
system.cpu.iq.FU_type_0::SimdFloatDiv               0      0.00%     77.52% # Type of FU issued
system.cpu.iq.FU_type_0::SimdFloatMisc              0      0.00%     77.52% # Type of FU issued
system.cpu.iq.FU_type_0::SimdFloatMult              0      0.00%     77.52% # Type of FU issued
system.cpu.iq.FU_type_0::SimdFloatMultAcc            0      0.00%     77.52% # Type of FU issued
system.cpu.iq.FU_type_0::SimdFloatSqrt              0      0.00%     77.52% # Type of FU issued
system.cpu.iq.FU_type_0::SimdReduceAdd              0      0.00%     77.52% # Type of FU issued
system.cpu.iq.FU_type_0::SimdReduceAlu              0      0.00%     77.52% # Type of FU issued
system.cpu.iq.FU_type_0::SimdReduceCmp              0      0.00%     77.52% # Type of FU issued
system.cpu.iq.FU_type_0::SimdFloatReduceAdd            0      0.00%     77.52% # Type of FU issued
system.cpu.iq.FU_type_0::SimdFloatReduceCmp            0      0.00%     77.52% # Type of FU issued
system.cpu.iq.FU_type_0::SimdAes                    0      0.00%     77.52% # Type of FU issued
system.cpu.iq.FU_type_0::SimdAesMix                 0      0.00%     77.52% # Type of FU issued
system.cpu.iq.FU_type_0::SimdSha1Hash               0      0.00%     77.52% # Type of FU issued
system.cpu.iq.FU_type_0::SimdSha1Hash2              0      0.00%     77.52% # Type of FU issued
system.cpu.iq.FU_type_0::SimdSha256Hash             0      0.00%     77.52% # Type of FU issued
system.cpu.iq.FU_type_0::SimdSha256Hash2            0      0.00%     77.52% # Type of FU issued
system.cpu.iq.FU_type_0::SimdShaSigma2              0      0.00%     77.52% # Type of FU issued
system.cpu.iq.FU_type_0::SimdShaSigma3              0      0.00%     77.52% # Type of FU issued
system.cpu.iq.FU_type_0::SimdPredAlu                0      0.00%     77.52% # Type of FU issued
system.cpu.iq.FU_type_0::MemRead             31432150     14.64%     92.16% # Type of FU issued
system.cpu.iq.FU_type_0::MemWrite            15858164      7.39%     99.55% # Type of FU issued
system.cpu.iq.FU_type_0::FloatMemRead          662261      0.31%     99.86% # Type of FU issued
system.cpu.iq.FU_type_0::FloatMemWrite         310148      0.14%    100.00% # Type of FU issued
system.cpu.iq.FU_type_0::IprAccess                  0      0.00%    100.00% # Type of FU issued
system.cpu.iq.FU_type_0::InstPrefetch               0      0.00%    100.00% # Type of FU issued
system.cpu.iq.FU_type_0::total              214661961                       # Type of FU issued
system.cpu.iq.fp_alu_accesses                 1100928                       # Number of floating point alu accesses
system.cpu.iq.fp_inst_queue_reads             2160086                       # Number of floating instruction queue reads
system.cpu.iq.fp_inst_queue_wakeup_accesses       819268                       # Number of floating instruction queue wakeup accesses
system.cpu.iq.fp_inst_queue_writes            2564721                       # Number of floating instruction queue writes
system.cpu.iq.fu_busy_cnt                     4375109                       # FU busy when requested
system.cpu.iq.fu_busy_rate                   0.020381                       # FU busy rate (busy events/executed inst)
system.cpu.iq.fu_full::No_OpClass                   0      0.00%      0.00% # attempts to use FU when none available
system.cpu.iq.fu_full::IntAlu                 3683118     84.18%     84.18% # attempts to use FU when none available
system.cpu.iq.fu_full::IntMult                      0      0.00%     84.18% # attempts to use FU when none available
system.cpu.iq.fu_full::IntDiv                       0      0.00%     84.18% # attempts to use FU when none available
system.cpu.iq.fu_full::FloatAdd                     0      0.00%     84.18% # attempts to use FU when none available
system.cpu.iq.fu_full::FloatCmp                     0      0.00%     84.18% # attempts to use FU when none available
system.cpu.iq.fu_full::FloatCvt                     2      0.00%     84.18% # attempts to use FU when none available
system.cpu.iq.fu_full::FloatMult                    0      0.00%     84.18% # attempts to use FU when none available
system.cpu.iq.fu_full::FloatMultAcc                 0      0.00%     84.18% # attempts to use FU when none available
system.cpu.iq.fu_full::FloatDiv                     0      0.00%     84.18% # attempts to use FU when none available
system.cpu.iq.fu_full::FloatMisc                    0      0.00%     84.18% # attempts to use FU when none available
system.cpu.iq.fu_full::FloatSqrt                    0      0.00%     84.18% # attempts to use FU when none available
system.cpu.iq.fu_full::SimdAdd                      0      0.00%     84.18% # attempts to use FU when none available
system.cpu.iq.fu_full::SimdAddAcc                   0      0.00%     84.18% # attempts to use FU when none available
system.cpu.iq.fu_full::SimdAlu                     30      0.00%     84.18% # attempts to use FU when none available
system.cpu.iq.fu_full::SimdCmp                      0      0.00%     84.18% # attempts to use FU when none available
system.cpu.iq.fu_full::SimdCvt                      3      0.00%     84.18% # attempts to use FU when none available
system.cpu.iq.fu_full::SimdMisc                     0      0.00%     84.18% # attempts to use FU when none available
system.cpu.iq.fu_full::SimdMult                     0      0.00%     84.18% # attempts to use FU when none available
system.cpu.iq.fu_full::SimdMultAcc                  0      0.00%     84.18% # attempts to use FU when none available
system.cpu.iq.fu_full::SimdShift                   15      0.00%     84.18% # attempts to use FU when none available
system.cpu.iq.fu_full::SimdShiftAcc                 0      0.00%     84.18% # attempts to use FU when none available
system.cpu.iq.fu_full::SimdDiv                      0      0.00%     84.18% # attempts to use FU when none available
system.cpu.iq.fu_full::SimdSqrt                     0      0.00%     84.18% # attempts to use FU when none available
system.cpu.iq.fu_full::SimdFloatAdd                 0      0.00%     84.18% # attempts to use FU when none available
system.cpu.iq.fu_full::SimdFloatAlu                 0      0.00%     84.18% # attempts to use FU when none available
system.cpu.iq.fu_full::SimdFloatCmp                 0      0.00%     84.18% # attempts to use FU when none available
system.cpu.iq.fu_full::SimdFloatCvt                 0      0.00%     84.18% # attempts to use FU when none available
system.cpu.iq.fu_full::SimdFloatDiv                 0      0.00%     84.18% # attempts to use FU when none available
system.cpu.iq.fu_full::SimdFloatMisc                0      0.00%     84.18% # attempts to use FU when none available
system.cpu.iq.fu_full::SimdFloatMult                0      0.00%     84.18% # attempts to use FU when none available
system.cpu.iq.fu_full::SimdFloatMultAcc             0      0.00%     84.18% # attempts to use FU when none available
system.cpu.iq.fu_full::SimdFloatSqrt                0      0.00%     84.18% # attempts to use FU when none available
system.cpu.iq.fu_full::SimdReduceAdd                0      0.00%     84.18% # attempts to use FU when none available
system.cpu.iq.fu_full::SimdReduceAlu                0      0.00%     84.18% # attempts to use FU when none available
system.cpu.iq.fu_full::SimdReduceCmp                0      0.00%     84.18% # attempts to use FU when none available
system.cpu.iq.fu_full::SimdFloatReduceAdd            0      0.00%     84.18% # attempts to use FU when none available
system.cpu.iq.fu_full::SimdFloatReduceCmp            0      0.00%     84.18% # attempts to use FU when none available
system.cpu.iq.fu_full::SimdAes                      0      0.00%     84.18% # attempts to use FU when none available
system.cpu.iq.fu_full::SimdAesMix                   0      0.00%     84.18% # attempts to use FU when none available
system.cpu.iq.fu_full::SimdSha1Hash                 0      0.00%     84.18% # attempts to use FU when none available
system.cpu.iq.fu_full::SimdSha1Hash2                0      0.00%     84.18% # attempts to use FU when none available
system.cpu.iq.fu_full::SimdSha256Hash               0      0.00%     84.18% # attempts to use FU when none available
system.cpu.iq.fu_full::SimdSha256Hash2              0      0.00%     84.18% # attempts to use FU when none available
system.cpu.iq.fu_full::SimdShaSigma2                0      0.00%     84.18% # attempts to use FU when none available
system.cpu.iq.fu_full::SimdShaSigma3                0      0.00%     84.18% # attempts to use FU when none available
system.cpu.iq.fu_full::SimdPredAlu                  0      0.00%     84.18% # attempts to use FU when none available
system.cpu.iq.fu_full::MemRead                 514861     11.77%     95.95% # attempts to use FU when none available
system.cpu.iq.fu_full::MemWrite                119198      2.72%     98.68% # attempts to use FU when none available
system.cpu.iq.fu_full::FloatMemRead             29673      0.68%     99.36% # attempts to use FU when none available
system.cpu.iq.fu_full::FloatMemWrite            28209      0.64%    100.00% # attempts to use FU when none available
system.cpu.iq.fu_full::IprAccess                    0      0.00%    100.00% # attempts to use FU when none available
system.cpu.iq.fu_full::InstPrefetch                 0      0.00%    100.00% # attempts to use FU when none available
system.cpu.iq.int_alu_accesses              216995975                       # Number of integer alu accesses
system.cpu.iq.int_inst_queue_reads          517946396                       # Number of integer instruction queue reads
system.cpu.iq.int_inst_queue_wakeup_accesses    207089902                       # Number of integer instruction queue wakeup accesses
system.cpu.iq.int_inst_queue_writes         284690493                       # Number of integer instruction queue writes
system.cpu.iq.iqInstsAdded                  234309328                       # Number of instructions added to the IQ (excludes non-spec)
system.cpu.iq.iqInstsIssued                 214661961                       # Number of instructions issued
system.cpu.iq.iqNonSpecInstsAdded              160101                       # Number of non-speculative instructions added to the IQ
system.cpu.iq.iqSquashedInstsExamined        52739889                       # Number of squashed instructions iterated over during squash; mainly for profiling
system.cpu.iq.iqSquashedInstsIssued            671390                       # Number of squashed instructions issued
system.cpu.iq.iqSquashedNonSpecRemoved         159388                       # Number of squashed non-spec instructions that were removed
system.cpu.iq.iqSquashedOperandsExamined     81978005                       # Number of squashed operands that are examined and possibly removed from graph
system.cpu.iq.issued_per_cycle::samples      85736061                       # Number of insts issued each cycle
system.cpu.iq.issued_per_cycle::mean         2.503753                       # Number of insts issued each cycle
system.cpu.iq.issued_per_cycle::stdev        2.443126                       # Number of insts issued each cycle
system.cpu.iq.issued_per_cycle::underflows            0      0.00%      0.00% # Number of insts issued each cycle
system.cpu.iq.issued_per_cycle::0            29399298     34.29%     34.29% # Number of insts issued each cycle
system.cpu.iq.issued_per_cycle::1             8627337     10.06%     44.35% # Number of insts issued each cycle
system.cpu.iq.issued_per_cycle::2            10076417     11.75%     56.11% # Number of insts issued each cycle
system.cpu.iq.issued_per_cycle::3             7888838      9.20%     65.31% # Number of insts issued each cycle
system.cpu.iq.issued_per_cycle::4             8187174      9.55%     74.86% # Number of insts issued each cycle
system.cpu.iq.issued_per_cycle::5             8225985      9.59%     84.45% # Number of insts issued each cycle
system.cpu.iq.issued_per_cycle::6             7058665      8.23%     92.68% # Number of insts issued each cycle
system.cpu.iq.issued_per_cycle::7             4194111      4.89%     97.58% # Number of insts issued each cycle
system.cpu.iq.issued_per_cycle::8             2078236      2.42%    100.00% # Number of insts issued each cycle
system.cpu.iq.issued_per_cycle::overflows            0      0.00%    100.00% # Number of insts issued each cycle
system.cpu.iq.issued_per_cycle::min_value            0                       # Number of insts issued each cycle
system.cpu.iq.issued_per_cycle::max_value            8                       # Number of insts issued each cycle
system.cpu.iq.issued_per_cycle::total        85736061                       # Number of insts issued each cycle
system.cpu.iq.rate                           2.473217                       # Inst issue rate
system.cpu.iq.vec_alu_accesses                      0                       # Number of vector alu accesses
system.cpu.iq.vec_inst_queue_reads                  0                       # Number of vector instruction queue reads
system.cpu.iq.vec_inst_queue_wakeup_accesses            0                       # Number of vector instruction queue wakeup accesses
system.cpu.iq.vec_inst_queue_writes                 0                       # Number of vector instruction queue writes
system.cpu.itb.rdAccesses                           0                       # TLB accesses on read requests
system.cpu.itb.rdMisses                             0                       # TLB misses on read requests
system.cpu.itb.walker.pwrStateResidencyTicks::UNDEFINED  86794637000                       # Cumulative time (in ticks) in various power states
system.cpu.itb.wrAccesses                    20589489                       # TLB accesses on write requests
system.cpu.itb.wrMisses                           468                       # TLB misses on write requests
system.cpu.itb_walker_cache.avg_blocked_cycles::no_mshrs          nan                       # average number of cycles each access was blocked
system.cpu.itb_walker_cache.avg_blocked_cycles::no_targets          nan                       # average number of cycles each access was blocked
system.cpu.itb_walker_cache.blocked::no_mshrs            0                       # number of cycles access was blocked
system.cpu.itb_walker_cache.blocked::no_targets            0                       # number of cycles access was blocked
system.cpu.itb_walker_cache.blocked_cycles::no_mshrs            0                       # number of cycles access was blocked
system.cpu.itb_walker_cache.blocked_cycles::no_targets            0                       # number of cycles access was blocked
system.cpu.itb_walker_cache.pwrStateResidencyTicks::UNDEFINED  86794637000                       # Cumulative time (in ticks) in various power states
system.cpu.itb_walker_cache.replacements            0                       # number of replacements
system.cpu.itb_walker_cache.tags.avg_refs          nan                       # Average number of references to valid blocks.
system.cpu.itb_walker_cache.tags.data_accesses            0                       # Number of data accesses
system.cpu.itb_walker_cache.tags.pwrStateResidencyTicks::UNDEFINED  86794637000                       # Cumulative time (in ticks) in various power states
system.cpu.itb_walker_cache.tags.sampled_refs            0                       # Sample count of references to valid blocks.
system.cpu.itb_walker_cache.tags.tag_accesses            0                       # Number of tag accesses
system.cpu.itb_walker_cache.tags.tagsinuse            0                       # Cycle average of tags in use
system.cpu.itb_walker_cache.tags.total_refs            0                       # Total number of references to valid blocks.
system.cpu.itb_walker_cache.tags.warmup_cycle            0                       # Cycle when the warmup percentage was hit.
system.cpu.memDep0.conflictingLoads           5198765                       # Number of conflicting loads.
system.cpu.memDep0.conflictingStores          2959818                       # Number of conflicting stores.
system.cpu.memDep0.insertedLoads             34598601                       # Number of loads inserted to the mem dependence unit.
system.cpu.memDep0.insertedStores            18907139                       # Number of stores inserted to the mem dependence unit.
system.cpu.misc_regfile_reads                83934308                       # number of misc regfile reads
system.cpu.misc_regfile_writes                    497                       # number of misc regfile writes
system.cpu.numCycles                         86794638                       # number of cpu cycles simulated
system.cpu.numWorkItemsCompleted                    0                       # number of work items this cpu completed
system.cpu.numWorkItemsStarted                      0                       # number of work items this cpu started
system.cpu.pwrStateResidencyTicks::ON     86794637000                       # Cumulative time (in ticks) in various power states
system.cpu.rename.BlockCycles                 6214190                       # Number of cycles rename is blocking
system.cpu.rename.CommittedMaps             243935147                       # Number of HB maps that are committed
system.cpu.rename.IQFullEvents                1656888                       # Number of times rename has blocked due to IQ full
system.cpu.rename.IdleCycles                 36259834                       # Number of cycles rename is idle
system.cpu.rename.LQFullEvents                  36464                       # Number of times rename has blocked due to LQ full
system.cpu.rename.ROBFullEvents                 66623                       # Number of times rename has blocked due to ROB full
system.cpu.rename.RenameLookups             658869419                       # Number of register rename lookups that rename has made
system.cpu.rename.RenamedInsts              251078973                       # Number of instructions processed by rename
system.cpu.rename.RenamedOperands           330922961                       # Number of destination operands rename has renamed
system.cpu.rename.RunCycles                  37513610                       # Number of cycles rename is running
system.cpu.rename.SQFullEvents                1677394                       # Number of times rename has blocked due to SQ full
system.cpu.rename.SquashCycles                1901851                       # Number of cycles rename is squashing
system.cpu.rename.UnblockCycles               3835478                       # Number of cycles rename is unblocking
system.cpu.rename.UndoneMaps                 86987790                       # Number of HB maps that are undone due to squashing
system.cpu.rename.fp_rename_lookups           1226009                       # Number of floating rename lookups
system.cpu.rename.int_rename_lookups        404770232                       # Number of integer rename lookups
system.cpu.rename.serializeStallCycles          11098                       # count of cycles rename stalled for serializing inst
system.cpu.rename.serializingInsts                757                       # count of serializing insts renamed
system.cpu.rename.skidInsts                   8960282                       # count of insts added to the skid buffer
system.cpu.rename.tempSerializingInsts            722                       # count of temporary serializing insts renamed
system.cpu.rob.rob_reads                    301107678                       # The number of ROB reads
system.cpu.rob.rob_writes                   476777218                       # The number of ROB writes
system.cpu.timesIdled                          237372                       # Number of times that the entire CPU went into an idle state and unscheduled itself
system.cpu.workload.numSyscalls                    94                       # Number of system calls
system.cpu_clk_domain.clock                      1000                       # Clock period in ticks
system.cpu_voltage_domain.voltage                   1                       # Voltage in Volts
system.l2.CleanEvict_mshr_miss_rate::.writebacks          inf                       # mshr miss rate for CleanEvict accesses
system.l2.CleanEvict_mshr_miss_rate::total          inf                       # mshr miss rate for CleanEvict accesses
system.l2.CleanEvict_mshr_misses::.writebacks          118                       # number of CleanEvict MSHR misses
system.l2.CleanEvict_mshr_misses::total           118                       # number of CleanEvict MSHR misses
system.l2.HardPFReq_avg_mshr_miss_latency::.l2.prefetcher 69759.635514                       # average HardPFReq mshr miss latency
system.l2.HardPFReq_avg_mshr_miss_latency::total 69759.635514                       # average HardPFReq mshr miss latency
system.l2.HardPFReq_mshr_miss_latency::.l2.prefetcher     22392843                       # number of HardPFReq MSHR miss cycles
system.l2.HardPFReq_mshr_miss_latency::total     22392843                       # number of HardPFReq MSHR miss cycles
system.l2.HardPFReq_mshr_miss_rate::.l2.prefetcher          inf                       # mshr miss rate for HardPFReq accesses
system.l2.HardPFReq_mshr_miss_rate::total          inf                       # mshr miss rate for HardPFReq accesses
system.l2.HardPFReq_mshr_misses::.l2.prefetcher          321                       # number of HardPFReq MSHR misses
system.l2.HardPFReq_mshr_misses::total            321                       # number of HardPFReq MSHR misses
system.l2.ReadCleanReq_accesses::.cpu.inst       781028                       # number of ReadCleanReq accesses(hits+misses)
system.l2.ReadCleanReq_accesses::total         781028                       # number of ReadCleanReq accesses(hits+misses)
system.l2.ReadCleanReq_avg_miss_latency::.cpu.inst 117367.346939                       # average ReadCleanReq miss latency
system.l2.ReadCleanReq_avg_miss_latency::total 117367.346939                       # average ReadCleanReq miss latency
system.l2.ReadCleanReq_avg_mshr_miss_latency::.cpu.inst 97425.444996                       # average ReadCleanReq mshr miss latency
system.l2.ReadCleanReq_avg_mshr_miss_latency::total 97425.444996                       # average ReadCleanReq mshr miss latency
system.l2.ReadCleanReq_hits::.cpu.inst         777598                       # number of ReadCleanReq hits
system.l2.ReadCleanReq_hits::total             777598                       # number of ReadCleanReq hits
system.l2.ReadCleanReq_miss_latency::.cpu.inst    402570000                       # number of ReadCleanReq miss cycles
system.l2.ReadCleanReq_miss_latency::total    402570000                       # number of ReadCleanReq miss cycles
system.l2.ReadCleanReq_miss_rate::.cpu.inst     0.004392                       # miss rate for ReadCleanReq accesses
system.l2.ReadCleanReq_miss_rate::total      0.004392                       # miss rate for ReadCleanReq accesses
system.l2.ReadCleanReq_misses::.cpu.inst         3430                       # number of ReadCleanReq misses
system.l2.ReadCleanReq_misses::total             3430                       # number of ReadCleanReq misses
system.l2.ReadCleanReq_mshr_hits::.cpu.inst            3                       # number of ReadCleanReq MSHR hits
system.l2.ReadCleanReq_mshr_hits::total             3                       # number of ReadCleanReq MSHR hits
system.l2.ReadCleanReq_mshr_miss_latency::.cpu.inst    333877000                       # number of ReadCleanReq MSHR miss cycles
system.l2.ReadCleanReq_mshr_miss_latency::total    333877000                       # number of ReadCleanReq MSHR miss cycles
system.l2.ReadCleanReq_mshr_miss_rate::.cpu.inst     0.004388                       # mshr miss rate for ReadCleanReq accesses
system.l2.ReadCleanReq_mshr_miss_rate::total     0.004388                       # mshr miss rate for ReadCleanReq accesses
system.l2.ReadCleanReq_mshr_misses::.cpu.inst         3427                       # number of ReadCleanReq MSHR misses
system.l2.ReadCleanReq_mshr_misses::total         3427                       # number of ReadCleanReq MSHR misses
system.l2.ReadExReq_accesses::.cpu.data          1677                       # number of ReadExReq accesses(hits+misses)
system.l2.ReadExReq_accesses::total              1677                       # number of ReadExReq accesses(hits+misses)
system.l2.ReadExReq_avg_miss_latency::.cpu.data 104155.870445                       # average ReadExReq miss latency
system.l2.ReadExReq_avg_miss_latency::total 104155.870445                       # average ReadExReq miss latency
system.l2.ReadExReq_avg_mshr_miss_latency::.cpu.data 84178.257934                       # average ReadExReq mshr miss latency
system.l2.ReadExReq_avg_mshr_miss_latency::total 84178.257934                       # average ReadExReq mshr miss latency
system.l2.ReadExReq_hits::.cpu.data               195                       # number of ReadExReq hits
system.l2.ReadExReq_hits::total                   195                       # number of ReadExReq hits
system.l2.ReadExReq_miss_latency::.cpu.data    154359000                       # number of ReadExReq miss cycles
system.l2.ReadExReq_miss_latency::total     154359000                       # number of ReadExReq miss cycles
system.l2.ReadExReq_miss_rate::.cpu.data     0.883721                       # miss rate for ReadExReq accesses
system.l2.ReadExReq_miss_rate::total         0.883721                       # miss rate for ReadExReq accesses
system.l2.ReadExReq_misses::.cpu.data            1482                       # number of ReadExReq misses
system.l2.ReadExReq_misses::total                1482                       # number of ReadExReq misses
system.l2.ReadExReq_mshr_hits::.cpu.data            1                       # number of ReadExReq MSHR hits
system.l2.ReadExReq_mshr_hits::total                1                       # number of ReadExReq MSHR hits
system.l2.ReadExReq_mshr_miss_latency::.cpu.data    124668000                       # number of ReadExReq MSHR miss cycles
system.l2.ReadExReq_mshr_miss_latency::total    124668000                       # number of ReadExReq MSHR miss cycles
system.l2.ReadExReq_mshr_miss_rate::.cpu.data     0.883125                       # mshr miss rate for ReadExReq accesses
system.l2.ReadExReq_mshr_miss_rate::total     0.883125                       # mshr miss rate for ReadExReq accesses
[...]
system.mem_ctrls.wrQLenPdf::27                     36                       # What write queue length does an incoming req see
system.mem_ctrls.wrQLenPdf::28                     36                       # What write queue length does an incoming req see
system.mem_ctrls.wrQLenPdf::29                     36                       # What write queue length does an incoming req see
system.mem_ctrls.wrQLenPdf::30                     36                       # What write queue length does an incoming req see
system.mem_ctrls.wrQLenPdf::31                     36                       # What write queue length does an incoming req see
system.mem_ctrls.wrQLenPdf::32                     35                       # What write queue length does an incoming req see
system.mem_ctrls.wrQLenPdf::33                      0                       # What write queue length does an incoming req see
system.mem_ctrls.wrQLenPdf::34                      0                       # What write queue length does an incoming req see
system.mem_ctrls.wrQLenPdf::35                      0                       # What write queue length does an incoming req see
system.mem_ctrls.wrQLenPdf::36                      0                       # What write queue length does an incoming req see
system.mem_ctrls.wrQLenPdf::37                      0                       # What write queue length does an incoming req see
system.mem_ctrls.wrQLenPdf::38                      0                       # What write queue length does an incoming req see
system.mem_ctrls.wrQLenPdf::39                      0                       # What write queue length does an incoming req see
system.mem_ctrls.wrQLenPdf::40                      0                       # What write queue length does an incoming req see
system.mem_ctrls.wrQLenPdf::41                      0                       # What write queue length does an incoming req see
system.mem_ctrls.wrQLenPdf::42                      0                       # What write queue length does an incoming req see
system.mem_ctrls.wrQLenPdf::43                      0                       # What write queue length does an incoming req see
system.mem_ctrls.wrQLenPdf::44                      0                       # What write queue length does an incoming req see
system.mem_ctrls.wrQLenPdf::45                      0                       # What write queue length does an incoming req see
system.mem_ctrls.wrQLenPdf::46                      0                       # What write queue length does an incoming req see
system.mem_ctrls.wrQLenPdf::47                      0                       # What write queue length does an incoming req see
system.mem_ctrls.wrQLenPdf::48                      0                       # What write queue length does an incoming req see
system.mem_ctrls.wrQLenPdf::49                      0                       # What write queue length does an incoming req see
system.mem_ctrls.wrQLenPdf::50                      0                       # What write queue length does an incoming req see
system.mem_ctrls.wrQLenPdf::51                      0                       # What write queue length does an incoming req see
system.mem_ctrls.wrQLenPdf::52                      0                       # What write queue length does an incoming req see
system.mem_ctrls.wrQLenPdf::53                      0                       # What write queue length does an incoming req see
system.mem_ctrls.wrQLenPdf::54                      0                       # What write queue length does an incoming req see
system.mem_ctrls.wrQLenPdf::55                      0                       # What write queue length does an incoming req see
system.mem_ctrls.wrQLenPdf::56                      0                       # What write queue length does an incoming req see
system.mem_ctrls.wrQLenPdf::57                      0                       # What write queue length does an incoming req see
system.mem_ctrls.wrQLenPdf::58                      0                       # What write queue length does an incoming req see
system.mem_ctrls.wrQLenPdf::59                      0                       # What write queue length does an incoming req see
system.mem_ctrls.wrQLenPdf::60                      0                       # What write queue length does an incoming req see
system.mem_ctrls.wrQLenPdf::61                      0                       # What write queue length does an incoming req see
system.mem_ctrls.wrQLenPdf::62                      0                       # What write queue length does an incoming req see
system.mem_ctrls.wrQLenPdf::63                      0                       # What write queue length does an incoming req see
system.mem_ctrls.writeBursts                      607                       # Number of DRAM write bursts, including those merged in the write queue
system.mem_ctrls.writePktSize::0                    0                       # Write request sizes (log2)
system.mem_ctrls.writePktSize::1                    0                       # Write request sizes (log2)
system.mem_ctrls.writePktSize::2                    0                       # Write request sizes (log2)
system.mem_ctrls.writePktSize::3                    0                       # Write request sizes (log2)
system.mem_ctrls.writePktSize::4                    0                       # Write request sizes (log2)
system.mem_ctrls.writePktSize::5                    0                       # Write request sizes (log2)
system.mem_ctrls.writePktSize::6                  607                       # Write request sizes (log2)
system.mem_ctrls.writeReqs                        607                       # Number of write requests accepted
system.mem_ctrls.writeRowHitRate                69.19                       # Row buffer hit rate for writes
system.mem_ctrls.writeRowHits                     420                       # Number of row buffer hits during writes
system.mem_ctrls_0.actBackEnergy             89596020                       # Energy for active background per rank (pJ)
system.mem_ctrls_0.actEnergy                  6426000                       # Energy for activate commands per rank (pJ)
system.mem_ctrls_0.actPowerDownEnergy       467656500                       # Energy for active power-down per rank (pJ)
system.mem_ctrls_0.averagePower            246.168435                       # Core power per rank (mW)
system.mem_ctrls_0.memoryStateTime::IDLE     14499000                       # Time in different power states
system.mem_ctrls_0.memoryStateTime::REF      56420000                       # Time in different power states
system.mem_ctrls_0.memoryStateTime::SREF  85083980500                       # Time in different power states
system.mem_ctrls_0.memoryStateTime::PRE_PDN    467968000                       # Time in different power states
system.mem_ctrls_0.memoryStateTime::ACT     146172251                       # Time in different power states
system.mem_ctrls_0.memoryStateTime::ACT_PDN   1025597249                       # Time in different power states
system.mem_ctrls_0.preBackEnergy              7853280                       # Energy for precharge background per rank (pJ)
system.mem_ctrls_0.preEnergy                  3415500                       # Energy for precharge commands per rank (pJ)
system.mem_ctrls_0.prePowerDownEnergy       179698080                       # Energy for precharge power-down per rank (pJ)
system.mem_ctrls_0.readEnergy                28674240                       # Energy for read commands per rank (pJ)
system.mem_ctrls_0.refreshEnergy         133376880.000000                       # Energy for refresh commands per rank (pJ)
system.mem_ctrls_0.selfRefreshEnergy      20447262360                       # Energy for self refresh per rank (pJ)
system.mem_ctrls_0.totalEnergy            21366099960                       # Total energy per rank (pJ)
system.mem_ctrls_0.totalIdleTime          79379267499                       # Total Idle time Per DRAM Rank
system.mem_ctrls_0.writeEnergy                2051460                       # Energy for write commands per rank (pJ)
system.mem_ctrls_1.actBackEnergy             93698880                       # Energy for active background per rank (pJ)
system.mem_ctrls_1.actEnergy                  7461300                       # Energy for activate commands per rank (pJ)
system.mem_ctrls_1.actPowerDownEnergy       621134700                       # Energy for active power-down per rank (pJ)
system.mem_ctrls_1.averagePower            247.877062                       # Core power per rank (mW)
system.mem_ctrls_1.memoryStateTime::IDLE     22509750                       # Time in different power states
system.mem_ctrls_1.memoryStateTime::REF      73320000                       # Time in different power states
system.mem_ctrls_1.memoryStateTime::SREF  84574010250                       # Time in different power states
system.mem_ctrls_1.memoryStateTime::PRE_PDN    622586750                       # Time in different power states
system.mem_ctrls_1.memoryStateTime::ACT     139987000                       # Time in different power states
system.mem_ctrls_1.memoryStateTime::ACT_PDN   1362223250                       # Time in different power states
system.mem_ctrls_1.preBackEnergy             11680320                       # Energy for precharge background per rank (pJ)
system.mem_ctrls_1.preEnergy                  3965775                       # Energy for precharge commands per rank (pJ)
system.mem_ctrls_1.prePowerDownEnergy       239077920                       # Energy for precharge power-down per rank (pJ)
system.mem_ctrls_1.readEnergy                30544920                       # Energy for read commands per rank (pJ)
system.mem_ctrls_1.refreshEnergy         173328480.000000                       # Energy for refresh commands per rank (pJ)
system.mem_ctrls_1.selfRefreshEnergy      20332552020                       # Energy for self refresh per rank (pJ)
system.mem_ctrls_1.totalEnergy            21514399575                       # Total energy per rank (pJ)
system.mem_ctrls_1.totalIdleTime          79354192750                       # Total Idle time Per DRAM Rank
system.mem_ctrls_1.writeEnergy                 955260                       # Energy for write commands per rank (pJ)
system.membus.pkt_count_system.l2.mem_side::system.mem_ctrls.port        20516                       # Packet count per connected master and slave (bytes)
system.membus.pkt_count_system.l2.mem_side::total        20516                       # Packet count per connected master and slave (bytes)
system.membus.pkt_count::total                  20516                       # Packet count per connected master and slave (bytes)
system.membus.pkt_size_system.l2.mem_side::system.mem_ctrls.port       569856                       # Cumulative packet size per connected master and slave (bytes)
system.membus.pkt_size_system.l2.mem_side::total       569856                       # Cumulative packet size per connected master and slave (bytes)
system.membus.pkt_size::total                  569856                       # Cumulative packet size per connected master and slave (bytes)
system.membus.pwrStateResidencyTicks::UNDEFINED  86794637000                       # Cumulative time (in ticks) in various power states
system.membus.reqLayer2.occupancy            14656990                       # Layer occupancy (ticks)
system.membus.reqLayer2.utilization               0.0                       # Layer utilization (%)
system.membus.respLayer1.occupancy           44002508                       # Layer occupancy (ticks)
system.membus.respLayer1.utilization              0.1                       # Layer utilization (%)
system.membus.snoopTraffic                          0                       # Total snoop traffic (bytes)
system.membus.snoop_fanout::samples              8297                       # Request fanout histogram
system.membus.snoop_fanout::mean                    0                       # Request fanout histogram
system.membus.snoop_fanout::stdev                   0                       # Request fanout histogram
system.membus.snoop_fanout::underflows              0      0.00%      0.00% # Request fanout histogram
system.membus.snoop_fanout::0                    8297    100.00%    100.00% # Request fanout histogram
system.membus.snoop_fanout::1                       0      0.00%    100.00% # Request fanout histogram
system.membus.snoop_fanout::overflows               0      0.00%    100.00% # Request fanout histogram
system.membus.snoop_fanout::min_value               0                       # Request fanout histogram
system.membus.snoop_fanout::max_value               0                       # Request fanout histogram
system.membus.snoop_fanout::total                8297                       # Request fanout histogram
system.membus.snoop_filter.hit_multi_requests            0                       # Number of requests hitting in the snoop filter with multiple (>1) holders of the requested data.
system.membus.snoop_filter.hit_multi_snoops            0                       # Number of snoops hitting in the snoop filter with multiple (>1) holders of the requested data.
system.membus.snoop_filter.hit_single_requests         3923                       # Number of requests hitting in the snoop filter with a single holder of the requested data.
system.membus.snoop_filter.hit_single_snoops            0                       # Number of snoops hitting in the snoop filter with a single holder of the requested data.
system.membus.snoop_filter.tot_requests         12219                       # Total number of requests made to the snoop filter.
system.membus.snoop_filter.tot_snoops               0                       # Total number of snoops made to the snoop filter.
system.membus.snoops                                0                       # Total snoops (count)
system.membus.trans_dist::ReadResp               6816                       # Transaction distribution
system.membus.trans_dist::WritebackDirty          607                       # Transaction distribution
system.membus.trans_dist::CleanEvict             3315                       # Transaction distribution
system.membus.trans_dist::ReadExReq              1481                       # Transaction distribution
system.membus.trans_dist::ReadExResp             1481                       # Transaction distribution
system.membus.trans_dist::ReadSharedReq          6816                       # Transaction distribution
system.tol2bus.pkt_count_system.cpu.icache.mem_side::system.l2.cpu_side      2342833                       # Packet count per connected master and slave (bytes)
system.tol2bus.pkt_count_system.cpu.dcache.mem_side::system.l2.cpu_side        16983                       # Packet count per connected master and slave (bytes)
system.tol2bus.pkt_count::total               2359816                       # Packet count per connected master and slave (bytes)
system.tol2bus.pkt_size_system.cpu.icache.mem_side::system.l2.cpu_side     99955136                       # Cumulative packet size per connected master and slave (bytes)
system.tol2bus.pkt_size_system.cpu.dcache.mem_side::system.l2.cpu_side       491072                       # Cumulative packet size per connected master and slave (bytes)
system.tol2bus.pkt_size::total              100446208                       # Cumulative packet size per connected master and slave (bytes)
system.tol2bus.pwrStateResidencyTicks::UNDEFINED  86794637000                       # Cumulative time (in ticks) in various power states
system.tol2bus.reqLayer0.occupancy         3137677000                       # Layer occupancy (ticks)
system.tol2bus.reqLayer0.utilization              3.6                       # Layer utilization (%)
system.tol2bus.respLayer0.occupancy        2343102996                       # Layer occupancy (ticks)
system.tol2bus.respLayer0.utilization             2.7                       # Layer utilization (%)
system.tol2bus.respLayer1.occupancy          18006995                       # Layer occupancy (ticks)
system.tol2bus.respLayer1.utilization             0.0                       # Layer utilization (%)
system.tol2bus.snoopTraffic                     39232                       # Total snoop traffic (bytes)
system.tol2bus.snoop_fanout::samples           791878                       # Request fanout histogram
system.tol2bus.snoop_fanout::mean            0.000923                       # Request fanout histogram
system.tol2bus.snoop_fanout::stdev           0.030410                       # Request fanout histogram
system.tol2bus.snoop_fanout::underflows             0      0.00%      0.00% # Request fanout histogram
system.tol2bus.snoop_fanout::0                 791148     99.91%     99.91% # Request fanout histogram
system.tol2bus.snoop_fanout::1                    729      0.09%    100.00% # Request fanout histogram
system.tol2bus.snoop_fanout::2                      1      0.00%    100.00% # Request fanout histogram
system.tol2bus.snoop_fanout::3                      0      0.00%    100.00% # Request fanout histogram
system.tol2bus.snoop_fanout::4                      0      0.00%    100.00% # Request fanout histogram
system.tol2bus.snoop_fanout::overflows              0      0.00%    100.00% # Request fanout histogram
system.tol2bus.snoop_fanout::min_value              0                       # Request fanout histogram
system.tol2bus.snoop_fanout::max_value              2                       # Request fanout histogram
system.tol2bus.snoop_fanout::total             791878                       # Request fanout histogram
system.tol2bus.snoop_filter.hit_multi_requests          168                       # Number of requests hitting in the snoop filter with multiple (>1) holders of the requested data.
system.tol2bus.snoop_filter.hit_multi_snoops            1                       # Number of snoops hitting in the snoop filter with multiple (>1) holders of the requested data.
system.tol2bus.snoop_filter.hit_single_requests       785750                       # Number of requests hitting in the snoop filter with a single holder of the requested data.
system.tol2bus.snoop_filter.hit_single_snoops          558                       # Number of snoops hitting in the snoop filter with a single holder of the requested data.
system.tol2bus.snoop_filter.tot_requests      1572785                       # Total number of requests made to the snoop filter.
system.tol2bus.snoop_filter.tot_snoops            559                       # Total number of snoops made to the snoop filter.
system.tol2bus.snoops                            4846                       # Total snoops (count)
system.tol2bus.trans_dist::ReadResp            785355                       # Transaction distribution
system.tol2bus.trans_dist::WritebackDirty         2281                       # Transaction distribution
system.tol2bus.trans_dist::WritebackClean       780772                       # Transaction distribution
system.tol2bus.trans_dist::CleanEvict            7057                       # Transaction distribution
system.tol2bus.trans_dist::HardPFReq              477                       # Transaction distribution
system.tol2bus.trans_dist::UpgradeReq               5                       # Transaction distribution
system.tol2bus.trans_dist::UpgradeResp              5                       # Transaction distribution
system.tol2bus.trans_dist::ReadExReq             1677                       # Transaction distribution
system.tol2bus.trans_dist::ReadExResp            1677                       # Transaction distribution
system.tol2bus.trans_dist::ReadCleanReq        781034                       # Transaction distribution
system.tol2bus.trans_dist::ReadSharedReq         4322                       # Transaction distribution
system.voltage_domain.voltage                       1                       # Voltage in Volts

---------- End Simulation Statistics   ----------
