
---------- Begin Simulation Statistics ----------
final_tick                                10859613000                       # Number of ticks from beginning of simulation (restored from checkpoints and never reset)
host_inst_rate                                 138869                       # Simulator instruction rate (inst/s)
host_mem_usage                                 825512                       # Number of bytes of host memory used
host_op_rate                                   270274                       # Simulator op (including micro ops) rate (op/s)
host_seconds                                    28.28                       # Real time elapsed on the host
host_tick_rate                              384000650                       # Simulator tick rate (ticks/s)
sim_freq                                 1000000000000                       # Frequency of simulated ticks
sim_insts                                     3927224                       # Number of instructions simulated
sim_ops                                       7643389                       # Number of ops (including micro ops) simulated
sim_seconds                                  0.010860                       # Number of seconds simulated
sim_ticks                                 10859613000                       # Number of ticks simulated
system.clk_domain.clock                          1000                       # Clock period in ticks
system.cpu.apic_clk_domain.clock                16000                       # Clock period in ticks
system.cpu.branchPred.BTBCorrect                    0                       # Number of correct BTB predictions (this stat may not work properly.
system.cpu.branchPred.BTBHitPct                   nan                       # BTB Hit Percentage
system.cpu.branchPred.BTBHits                       0                       # Number of BTB hits
system.cpu.branchPred.BTBLookups                    0                       # Number of BTB lookups
system.cpu.branchPred.RASInCorrect                  0                       # Number of incorrect RAS predictions.
system.cpu.branchPred.condIncorrect                 1                       # Number of conditional branches incorrect
system.cpu.branchPred.condPredicted                 1                       # Number of conditional branches predicted
system.cpu.branchPred.indirectHits                  0                       # Number of indirect target hits.
system.cpu.branchPred.indirectLookups               0                       # Number of indirect predictor lookups.
system.cpu.branchPred.indirectMisses                0                       # Number of indirect misses.
system.cpu.branchPred.lookups                       1                       # Number of BP lookups
system.cpu.branchPred.usedRAS                       0                       # Number of times the RAS was used to get a target.
system.cpu.branchPredindirectMispredicted            0                       # Number of mispredicted indirect branches.
system.cpu.cc_regfile_reads                         5                       # number of cc regfile reads
system.cpu.commit.amos                              0                       # Number of atomic instructions committed
system.cpu.commit.branchMispredicts                 1                       # The number of times a branch was mispredicted
system.cpu.commit.branches                          1                       # Number of branches committed
system.cpu.commit.bw_lim_events                     0                       # number cycles where commit BW limit reached
system.cpu.commit.commitSquashedInsts              24                       # The number of squashed insts skipped by commit
system.cpu.commit.committedInsts                    3                       # Number of instructions committed
system.cpu.commit.committedOps                      8                       # Number of ops (including micro ops) committed
system.cpu.commit.committed_per_cycle::samples           44                       # Number of insts commited each cycle
system.cpu.commit.committed_per_cycle::mean     0.181818                       # Number of insts commited each cycle
system.cpu.commit.committed_per_cycle::stdev     0.946787                       # Number of insts commited each cycle
system.cpu.commit.committed_per_cycle::underflows            0      0.00%      0.00% # Number of insts commited each cycle
system.cpu.commit.committed_per_cycle::0           42     95.45%     95.45% # Number of insts commited each cycle
system.cpu.commit.committed_per_cycle::1            0      0.00%     95.45% # Number of insts commited each cycle
system.cpu.commit.committed_per_cycle::2            1      2.27%     97.73% # Number of insts commited each cycle
system.cpu.commit.committed_per_cycle::3            0      0.00%     97.73% # Number of insts commited each cycle
system.cpu.commit.committed_per_cycle::4            0      0.00%     97.73% # Number of insts commited each cycle
system.cpu.commit.committed_per_cycle::5            0      0.00%     97.73% # Number of insts commited each cycle
system.cpu.commit.committed_per_cycle::6            1      2.27%    100.00% # Number of insts commited each cycle
system.cpu.commit.committed_per_cycle::7            0      0.00%    100.00% # Number of insts commited each cycle
system.cpu.commit.committed_per_cycle::8            0      0.00%    100.00% # Number of insts commited each cycle
system.cpu.commit.committed_per_cycle::overflows            0      0.00%    100.00% # Number of insts commited each cycle
system.cpu.commit.committed_per_cycle::min_value            0                       # Number of insts commited each cycle
system.cpu.commit.committed_per_cycle::max_value            6                       # Number of insts commited each cycle
system.cpu.commit.committed_per_cycle::total           44                       # Number of insts commited each cycle
system.cpu.commit.fp_insts                          0                       # Number of committed floating point instructions.
system.cpu.commit.function_calls                    1                       # Number of function calls committed.
system.cpu.commit.int_insts                         8                       # Number of committed integer instructions.
system.cpu.commit.loads                             0                       # Number of loads committed
system.cpu.commit.membars                           0                       # Number of memory barriers committed
system.cpu.commit.op_class_0::No_OpClass            0      0.00%      0.00% # Class of committed instruction
system.cpu.commit.op_class_0::IntAlu                6     75.00%     75.00% # Class of committed instruction
system.cpu.commit.op_class_0::IntMult               0      0.00%     75.00% # Class of committed instruction
system.cpu.commit.op_class_0::IntDiv                0      0.00%     75.00% # Class of committed instruction
system.cpu.commit.op_class_0::FloatAdd              0      0.00%     75.00% # Class of committed instruction
system.cpu.commit.op_class_0::FloatCmp              0      0.00%     75.00% # Class of committed instruction
system.cpu.commit.op_class_0::FloatCvt              0      0.00%     75.00% # Class of committed instruction
system.cpu.commit.op_class_0::FloatMult             0      0.00%     75.00% # Class of committed instruction
system.cpu.commit.op_class_0::FloatMultAcc            0      0.00%     75.00% # Class of committed instruction
system.cpu.commit.op_class_0::FloatDiv              0      0.00%     75.00% # Class of committed instruction
system.cpu.commit.op_class_0::FloatMisc             0      0.00%     75.00% # Class of committed instruction
system.cpu.commit.op_class_0::FloatSqrt             0      0.00%     75.00% # Class of committed instruction
system.cpu.commit.op_class_0::SimdAdd               0      0.00%     75.00% # Class of committed instruction
system.cpu.commit.op_class_0::SimdAddAcc            0      0.00%     75.00% # Class of committed instruction
system.cpu.commit.op_class_0::SimdAlu               0      0.00%     75.00% # Class of committed instruction
system.cpu.commit.op_class_0::SimdCmp               0      0.00%     75.00% # Class of committed instruction
system.cpu.commit.op_class_0::SimdCvt               0      0.00%     75.00% # Class of committed instruction
system.cpu.commit.op_class_0::SimdMisc              0      0.00%     75.00% # Class of committed instruction
system.cpu.commit.op_class_0::SimdMult              0      0.00%     75.00% # Class of committed instruction
system.cpu.commit.op_class_0::SimdMultAcc            0      0.00%     75.00% # Class of committed instruction
system.cpu.commit.op_class_0::SimdShift             0      0.00%     75.00% # Class of committed instruction
system.cpu.commit.op_class_0::SimdShiftAcc            0      0.00%     75.00% # Class of committed instruction
system.cpu.commit.op_class_0::SimdDiv               0      0.00%     75.00% # Class of committed instruction
system.cpu.commit.op_class_0::SimdSqrt              0      0.00%     75.00% # Class of committed instruction
system.cpu.commit.op_class_0::SimdFloatAdd            0      0.00%     75.00% # Class of committed instruction
system.cpu.commit.op_class_0::SimdFloatAlu            0      0.00%     75.00% # Class of committed instruction
system.cpu.commit.op_class_0::SimdFloatCmp            0      0.00%     75.00% # Class of committed instruction
system.cpu.commit.op_class_0::SimdFloatCvt            0      0.00%     75.00% # Class of committed instruction
system.cpu.commit.op_class_0::SimdFloatDiv            0      0.00%     75.00% # Class of committed instruction
system.cpu.commit.op_class_0::SimdFloatMisc            0      0.00%     75.00% # Class of committed instruction
system.cpu.commit.op_class_0::SimdFloatMult            0      0.00%     75.00% # Class of committed instruction
system.cpu.commit.op_class_0::SimdFloatMultAcc            0      0.00%     75.00% # Class of committed instruction
system.cpu.commit.op_class_0::SimdFloatSqrt            0      0.00%     75.00% # Class of committed instruction
system.cpu.commit.op_class_0::SimdReduceAdd            0      0.00%     75.00% # Class of committed instruction
system.cpu.commit.op_class_0::SimdReduceAlu            0      0.00%     75.00% # Class of committed instruction
system.cpu.commit.op_class_0::SimdReduceCmp            0      0.00%     75.00% # Class of committed instruction
system.cpu.commit.op_class_0::SimdFloatReduceAdd            0      0.00%     75.00% # Class of committed instruction
system.cpu.commit.op_class_0::SimdFloatReduceCmp            0      0.00%     75.00% # Class of committed instruction
system.cpu.commit.op_class_0::SimdAes               0      0.00%     75.00% # Class of committed instruction
system.cpu.commit.op_class_0::SimdAesMix            0      0.00%     75.00% # Class of committed instruction
system.cpu.commit.op_class_0::SimdSha1Hash            0      0.00%     75.00% # Class of committed instruction
system.cpu.commit.op_class_0::SimdSha1Hash2            0      0.00%     75.00% # Class of committed instruction
system.cpu.commit.op_class_0::SimdSha256Hash            0      0.00%     75.00% # Class of committed instruction
system.cpu.commit.op_class_0::SimdSha256Hash2            0      0.00%     75.00% # Class of committed instruction
system.cpu.commit.op_class_0::SimdShaSigma2            0      0.00%     75.00% # Class of committed instruction
system.cpu.commit.op_class_0::SimdShaSigma3            0      0.00%     75.00% # Class of committed instruction
system.cpu.commit.op_class_0::SimdPredAlu            0      0.00%     75.00% # Class of committed instruction
system.cpu.commit.op_class_0::MemRead               0      0.00%     75.00% # Class of committed instruction
system.cpu.commit.op_class_0::MemWrite              2     25.00%    100.00% # Class of committed instruction
system.cpu.commit.op_class_0::FloatMemRead            0      0.00%    100.00% # Class of committed instruction
system.cpu.commit.op_class_0::FloatMemWrite            0      0.00%    100.00% # Class of committed instruction
system.cpu.commit.op_class_0::IprAccess             0      0.00%    100.00% # Class of committed instruction
system.cpu.commit.op_class_0::InstPrefetch            0      0.00%    100.00% # Class of committed instruction
system.cpu.commit.op_class_0::total                 8                       # Class of committed instruction
system.cpu.commit.refs                              2                       # Number of memory references committed
system.cpu.commit.swp_count                         0                       # Number of s/w prefetches committed
system.cpu.commit.vec_insts                         0                       # Number of committed Vector instructions.
system.cpu.committedInsts                           3                       # Number of Instructions Simulated
system.cpu.committedOps                             8                       # Number of Ops (including micro ops) Simulated
system.cpu.cpi                              82.000000                       # CPI: Cycles Per Instruction
system.cpu.cpi_total                        82.000000                       # CPI: Total CPI of All Threads
system.cpu.dcache.ReadReq_accesses::.cpu.data            1                       # number of ReadReq accesses(hits+misses)
system.cpu.dcache.ReadReq_accesses::.switch_cpus.data       385092                       # number of ReadReq accesses(hits+misses)
system.cpu.dcache.ReadReq_accesses::.switch_cpus_1.data       723261                       # number of ReadReq accesses(hits+misses)
system.cpu.dcache.ReadReq_accesses::total      1108354                       # number of ReadReq accesses(hits+misses)
system.cpu.dcache.ReadReq_avg_miss_latency::.cpu.data       111000                       # average ReadReq miss latency
system.cpu.dcache.ReadReq_avg_miss_latency::.switch_cpus.data 92978.254051                       # average ReadReq miss latency
system.cpu.dcache.ReadReq_avg_miss_latency::.switch_cpus_1.data 79776.951323                       # average ReadReq miss latency
system.cpu.dcache.ReadReq_avg_miss_latency::total 86033.536434                       # average ReadReq miss latency
system.cpu.dcache.ReadReq_avg_mshr_miss_latency::.cpu.data       109000                       # average ReadReq mshr miss latency
system.cpu.dcache.ReadReq_avg_mshr_miss_latency::.switch_cpus.data 90978.254051                       # average ReadReq mshr miss latency
system.cpu.dcache.ReadReq_avg_mshr_miss_latency::.switch_cpus_1.data 74817.991996                       # average ReadReq mshr miss latency
system.cpu.dcache.ReadReq_avg_mshr_miss_latency::total 84914.451773                       # average ReadReq mshr miss latency
system.cpu.dcache.ReadReq_hits::.switch_cpus.data       375527                       # number of ReadReq hits
system.cpu.dcache.ReadReq_hits::.switch_cpus_1.data       712640                       # number of ReadReq hits
system.cpu.dcache.ReadReq_hits::total         1088167                       # number of ReadReq hits
system.cpu.dcache.ReadReq_miss_latency::.cpu.data       111000                       # number of ReadReq miss cycles
system.cpu.dcache.ReadReq_miss_latency::.switch_cpus.data    889337000                       # number of ReadReq miss cycles
system.cpu.dcache.ReadReq_miss_latency::.switch_cpus_1.data    847311000                       # number of ReadReq miss cycles
system.cpu.dcache.ReadReq_miss_latency::total   1736759000                       # number of ReadReq miss cycles
system.cpu.dcache.ReadReq_miss_rate::.cpu.data            1                       # miss rate for ReadReq accesses
system.cpu.dcache.ReadReq_miss_rate::.switch_cpus.data     0.024838                       # miss rate for ReadReq accesses
system.cpu.dcache.ReadReq_miss_rate::.switch_cpus_1.data     0.014685                       # miss rate for ReadReq accesses
system.cpu.dcache.ReadReq_miss_rate::total     0.018213                       # miss rate for ReadReq accesses
system.cpu.dcache.ReadReq_misses::.cpu.data            1                       # number of ReadReq misses
system.cpu.dcache.ReadReq_misses::.switch_cpus.data         9565                       # number of ReadReq misses
system.cpu.dcache.ReadReq_misses::.switch_cpus_1.data        10621                       # number of ReadReq misses
system.cpu.dcache.ReadReq_misses::total         20187                       # number of ReadReq misses
system.cpu.dcache.ReadReq_mshr_hits::.switch_cpus_1.data         4874                       # number of ReadReq MSHR hits
system.cpu.dcache.ReadReq_mshr_hits::total         4874                       # number of ReadReq MSHR hits
system.cpu.dcache.ReadReq_mshr_miss_latency::.cpu.data       109000                       # number of ReadReq MSHR miss cycles
system.cpu.dcache.ReadReq_mshr_miss_latency::.switch_cpus.data    870207000                       # number of ReadReq MSHR miss cycles
system.cpu.dcache.ReadReq_mshr_miss_latency::.switch_cpus_1.data    429979000                       # number of ReadReq MSHR miss cycles
system.cpu.dcache.ReadReq_mshr_miss_latency::total   1300295000                       # number of ReadReq MSHR miss cycles
system.cpu.dcache.ReadReq_mshr_miss_rate::.cpu.data            1                       # mshr miss rate for ReadReq accesses
system.cpu.dcache.ReadReq_mshr_miss_rate::.switch_cpus.data     0.024838                       # mshr miss rate for ReadReq accesses
system.cpu.dcache.ReadReq_mshr_miss_rate::.switch_cpus_1.data     0.007946                       # mshr miss rate for ReadReq accesses
system.cpu.dcache.ReadReq_mshr_miss_rate::total     0.013816                       # mshr miss rate for ReadReq accesses
system.cpu.dcache.ReadReq_mshr_misses::.cpu.data            1                       # number of ReadReq MSHR misses
system.cpu.dcache.ReadReq_mshr_misses::.switch_cpus.data         9565                       # number of ReadReq MSHR misses
system.cpu.dcache.ReadReq_mshr_misses::.switch_cpus_1.data         5747                       # number of ReadReq MSHR misses
system.cpu.dcache.ReadReq_mshr_misses::total        15313                       # number of ReadReq MSHR misses
system.cpu.dcache.WriteReq_accesses::.cpu.data            2                       # number of WriteReq accesses(hits+misses)
system.cpu.dcache.WriteReq_accesses::.switch_cpus.data       161386                       # number of WriteReq accesses(hits+misses)
system.cpu.dcache.WriteReq_accesses::.switch_cpus_1.data       304446                       # number of WriteReq accesses(hits+misses)
system.cpu.dcache.WriteReq_accesses::total       465834                       # number of WriteReq accesses(hits+misses)
system.cpu.dcache.WriteReq_avg_miss_latency::.cpu.data       116000                       # average WriteReq miss latency
system.cpu.dcache.WriteReq_avg_miss_latency::.switch_cpus.data 100918.645558                       # average WriteReq miss latency
system.cpu.dcache.WriteReq_avg_miss_latency::.switch_cpus_1.data 112621.545667                       # average WriteReq miss latency
system.cpu.dcache.WriteReq_avg_miss_latency::total 106587.755102                       # average WriteReq miss latency
system.cpu.dcache.WriteReq_avg_mshr_miss_latency::.cpu.data       114000                       # average WriteReq mshr miss latency
system.cpu.dcache.WriteReq_avg_mshr_miss_latency::.switch_cpus.data 98918.645558                       # average WriteReq mshr miss latency
system.cpu.dcache.WriteReq_avg_mshr_miss_latency::.switch_cpus_1.data 110954.331450                       # average WriteReq mshr miss latency
system.cpu.dcache.WriteReq_avg_mshr_miss_latency::total 104733.348488                       # average WriteReq mshr miss latency
system.cpu.dcache.WriteReq_hits::.cpu.data            1                       # number of WriteReq hits
system.cpu.dcache.WriteReq_hits::.switch_cpus.data       159112                       # number of WriteReq hits
system.cpu.dcache.WriteReq_hits::.switch_cpus_1.data       302311                       # number of WriteReq hits
system.cpu.dcache.WriteReq_hits::total         461424                       # number of WriteReq hits
system.cpu.dcache.WriteReq_miss_latency::.cpu.data       116000                       # number of WriteReq miss cycles
system.cpu.dcache.WriteReq_miss_latency::.switch_cpus.data    229489000                       # number of WriteReq miss cycles
system.cpu.dcache.WriteReq_miss_latency::.switch_cpus_1.data    240447000                       # number of WriteReq miss cycles
system.cpu.dcache.WriteReq_miss_latency::total    470052000                       # number of WriteReq miss cycles
system.cpu.dcache.WriteReq_miss_rate::.cpu.data     0.500000                       # miss rate for WriteReq accesses
system.cpu.dcache.WriteReq_miss_rate::.switch_cpus.data     0.014090                       # miss rate for WriteReq accesses
system.cpu.dcache.WriteReq_miss_rate::.switch_cpus_1.data     0.007013                       # miss rate for WriteReq accesses
system.cpu.dcache.WriteReq_miss_rate::total     0.009467                       # miss rate for WriteReq accesses
system.cpu.dcache.WriteReq_misses::.cpu.data            1                       # number of WriteReq misses
system.cpu.dcache.WriteReq_misses::.switch_cpus.data         2274                       # number of WriteReq misses
system.cpu.dcache.WriteReq_misses::.switch_cpus_1.data         2135                       # number of WriteReq misses
system.cpu.dcache.WriteReq_misses::total         4410                       # number of WriteReq misses
system.cpu.dcache.WriteReq_mshr_hits::.switch_cpus_1.data           11                       # number of WriteReq MSHR hits
system.cpu.dcache.WriteReq_mshr_hits::total           11                       # number of WriteReq MSHR hits
system.cpu.dcache.WriteReq_mshr_miss_latency::.cpu.data       114000                       # number of WriteReq MSHR miss cycles
system.cpu.dcache.WriteReq_mshr_miss_latency::.switch_cpus.data    224941000                       # number of WriteReq MSHR miss cycles
system.cpu.dcache.WriteReq_mshr_miss_latency::.switch_cpus_1.data    235667000                       # number of WriteReq MSHR miss cycles
system.cpu.dcache.WriteReq_mshr_miss_latency::total    460722000                       # number of WriteReq MSHR miss cycles
system.cpu.dcache.WriteReq_mshr_miss_rate::.cpu.data     0.500000                       # mshr miss rate for WriteReq accesses
system.cpu.dcache.WriteReq_mshr_miss_rate::.switch_cpus.data     0.014090                       # mshr miss rate for WriteReq accesses
system.cpu.dcache.WriteReq_mshr_miss_rate::.switch_cpus_1.data     0.006977                       # mshr miss rate for WriteReq accesses
system.cpu.dcache.WriteReq_mshr_miss_rate::total     0.009443                       # mshr miss rate for WriteReq accesses
system.cpu.dcache.WriteReq_mshr_misses::.cpu.data            1                       # number of WriteReq MSHR misses
system.cpu.dcache.WriteReq_mshr_misses::.switch_cpus.data         2274                       # number of WriteReq MSHR misses
system.cpu.dcache.WriteReq_mshr_misses::.switch_cpus_1.data         2124                       # number of WriteReq MSHR misses
system.cpu.dcache.WriteReq_mshr_misses::total         4399                       # number of WriteReq MSHR misses
system.cpu.dcache.avg_blocked_cycles::no_mshrs    32.816327                       # average number of cycles each access was blocked
system.cpu.dcache.avg_blocked_cycles::no_targets          204                       # average number of cycles each access was blocked
system.cpu.dcache.blocked::no_mshrs                98                       # number of cycles access was blocked
system.cpu.dcache.blocked::no_targets               2                       # number of cycles access was blocked
system.cpu.dcache.blocked_cycles::no_mshrs         3216                       # number of cycles access was blocked
system.cpu.dcache.blocked_cycles::no_targets          408                       # number of cycles access was blocked
system.cpu.dcache.demand_accesses::.cpu.data            3                       # number of demand (read+write) accesses
system.cpu.dcache.demand_accesses::.switch_cpus.data       546478                       # number of demand (read+write) accesses
system.cpu.dcache.demand_accesses::.switch_cpus_1.data      1027707                       # number of demand (read+write) accesses
system.cpu.dcache.demand_accesses::total      1574188                       # number of demand (read+write) accesses
system.cpu.dcache.demand_avg_miss_latency::.cpu.data       113500                       # average overall miss latency
system.cpu.dcache.demand_avg_miss_latency::.switch_cpus.data 94503.420897                       # average overall miss latency
system.cpu.dcache.demand_avg_miss_latency::.switch_cpus_1.data 85274.223895                       # average overall miss latency
system.cpu.dcache.demand_avg_miss_latency::total 89718.705533                       # average overall miss latency
system.cpu.dcache.demand_avg_mshr_miss_latency::.cpu.data       111500                       # average overall mshr miss latency
system.cpu.dcache.demand_avg_mshr_miss_latency::.switch_cpus.data 92503.420897                       # average overall mshr miss latency
system.cpu.dcache.demand_avg_mshr_miss_latency::.switch_cpus_1.data 84569.432092                       # average overall mshr miss latency
system.cpu.dcache.demand_avg_mshr_miss_latency::total 89337.307224                       # average overall mshr miss latency
system.cpu.dcache.demand_hits::.cpu.data            1                       # number of demand (read+write) hits
system.cpu.dcache.demand_hits::.switch_cpus.data       534639                       # number of demand (read+write) hits
system.cpu.dcache.demand_hits::.switch_cpus_1.data      1014951                       # number of demand (read+write) hits
system.cpu.dcache.demand_hits::total          1549591                       # number of demand (read+write) hits
system.cpu.dcache.demand_miss_latency::.cpu.data       227000                       # number of demand (read+write) miss cycles
system.cpu.dcache.demand_miss_latency::.switch_cpus.data   1118826000                       # number of demand (read+write) miss cycles
system.cpu.dcache.demand_miss_latency::.switch_cpus_1.data   1087758000                       # number of demand (read+write) miss cycles
system.cpu.dcache.demand_miss_latency::total   2206811000                       # number of demand (read+write) miss cycles
system.cpu.dcache.demand_miss_rate::.cpu.data     0.666667                       # miss rate for demand accesses
system.cpu.dcache.demand_miss_rate::.switch_cpus.data     0.021664                       # miss rate for demand accesses
system.cpu.dcache.demand_miss_rate::.switch_cpus_1.data     0.012412                       # miss rate for demand accesses
system.cpu.dcache.demand_miss_rate::total     0.015625                       # miss rate for demand accesses
system.cpu.dcache.demand_misses::.cpu.data            2                       # number of demand (read+write) misses
system.cpu.dcache.demand_misses::.switch_cpus.data        11839                       # number of demand (read+write) misses
system.cpu.dcache.demand_misses::.switch_cpus_1.data        12756                       # number of demand (read+write) misses
system.cpu.dcache.demand_misses::total          24597                       # number of demand (read+write) misses
system.cpu.dcache.demand_mshr_hits::.switch_cpus_1.data         4885                       # number of demand (read+write) MSHR hits
system.cpu.dcache.demand_mshr_hits::total         4885                       # number of demand (read+write) MSHR hits
system.cpu.dcache.demand_mshr_miss_latency::.cpu.data       223000                       # number of demand (read+write) MSHR miss cycles
system.cpu.dcache.demand_mshr_miss_latency::.switch_cpus.data   1095148000                       # number of demand (read+write) MSHR miss cycles
system.cpu.dcache.demand_mshr_miss_latency::.switch_cpus_1.data    665646000                       # number of demand (read+write) MSHR miss cycles
system.cpu.dcache.demand_mshr_miss_latency::total   1761017000                       # number of demand (read+write) MSHR miss cycles
system.cpu.dcache.demand_mshr_miss_rate::.cpu.data     0.666667                       # mshr miss rate for demand accesses
system.cpu.dcache.demand_mshr_miss_rate::.switch_cpus.data     0.021664                       # mshr miss rate for demand accesses
system.cpu.dcache.demand_mshr_miss_rate::.switch_cpus_1.data     0.007659                       # mshr miss rate for demand accesses
system.cpu.dcache.demand_mshr_miss_rate::total     0.012522                       # mshr miss rate for demand accesses
system.cpu.dcache.demand_mshr_misses::.cpu.data            2                       # number of demand (read+write) MSHR misses
system.cpu.dcache.demand_mshr_misses::.switch_cpus.data        11839                       # number of demand (read+write) MSHR misses
system.cpu.dcache.demand_mshr_misses::.switch_cpus_1.data         7871                       # number of demand (read+write) MSHR misses
system.cpu.dcache.demand_mshr_misses::total        19712                       # number of demand (read+write) MSHR misses
system.cpu.dcache.overall_accesses::.cpu.data            3                       # number of overall (read+write) accesses
system.cpu.dcache.overall_accesses::.switch_cpus.data       546478                       # number of overall (read+write) accesses
system.cpu.dcache.overall_accesses::.switch_cpus_1.data      1027707                       # number of overall (read+write) accesses
system.cpu.dcache.overall_accesses::total      1574188                       # number of overall (read+write) accesses
system.cpu.dcache.overall_avg_miss_latency::.cpu.data       113500                       # average overall miss latency
system.cpu.dcache.overall_avg_miss_latency::.switch_cpus.data 94503.420897                       # average overall miss latency
system.cpu.dcache.overall_avg_miss_latency::.switch_cpus_1.data 85274.223895                       # average overall miss latency
system.cpu.dcache.overall_avg_miss_latency::total 89718.705533                       # average overall miss latency
system.cpu.dcache.overall_avg_mshr_miss_latency::.cpu.data       111500                       # average overall mshr miss latency
system.cpu.dcache.overall_avg_mshr_miss_latency::.switch_cpus.data 92503.420897                       # average overall mshr miss latency
system.cpu.dcache.overall_avg_mshr_miss_latency::.switch_cpus_1.data 84569.432092                       # average overall mshr miss latency
system.cpu.dcache.overall_avg_mshr_miss_latency::total 89337.307224                       # average overall mshr miss latency
system.cpu.dcache.overall_hits::.cpu.data            1                       # number of overall hits
system.cpu.dcache.overall_hits::.switch_cpus.data       534639                       # number of overall hits
system.cpu.dcache.overall_hits::.switch_cpus_1.data      1014951                       # number of overall hits
system.cpu.dcache.overall_hits::total         1549591                       # number of overall hits
system.cpu.dcache.overall_miss_latency::.cpu.data       227000                       # number of overall miss cycles
system.cpu.dcache.overall_miss_latency::.switch_cpus.data   1118826000                       # number of overall miss cycles
system.cpu.dcache.overall_miss_latency::.switch_cpus_1.data   1087758000                       # number of overall miss cycles
system.cpu.dcache.overall_miss_latency::total   2206811000                       # number of overall miss cycles
system.cpu.dcache.overall_miss_rate::.cpu.data     0.666667                       # miss rate for overall accesses
system.cpu.dcache.overall_miss_rate::.switch_cpus.data     0.021664                       # miss rate for overall accesses
system.cpu.dcache.overall_miss_rate::.switch_cpus_1.data     0.012412                       # miss rate for overall accesses
system.cpu.dcache.overall_miss_rate::total     0.015625                       # miss rate for overall accesses
system.cpu.dcache.overall_misses::.cpu.data            2                       # number of overall misses
system.cpu.dcache.overall_misses::.switch_cpus.data        11839                       # number of overall misses
system.cpu.dcache.overall_misses::.switch_cpus_1.data        12756                       # number of overall misses
system.cpu.dcache.overall_misses::total         24597                       # number of overall misses
system.cpu.dcache.overall_mshr_hits::.switch_cpus_1.data         4885                       # number of overall MSHR hits
system.cpu.dcache.overall_mshr_hits::total         4885                       # number of overall MSHR hits
system.cpu.dcache.overall_mshr_miss_latency::.cpu.data       223000                       # number of overall MSHR miss cycles
system.cpu.dcache.overall_mshr_miss_latency::.switch_cpus.data   1095148000                       # number of overall MSHR miss cycles
system.cpu.dcache.overall_mshr_miss_latency::.switch_cpus_1.data    665646000                       # number of overall MSHR miss cycles
system.cpu.dcache.overall_mshr_miss_latency::total   1761017000                       # number of overall MSHR miss cycles
system.cpu.dcache.overall_mshr_miss_rate::.cpu.data     0.666667                       # mshr miss rate for overall accesses
system.cpu.dcache.overall_mshr_miss_rate::.switch_cpus.data     0.021664                       # mshr miss rate for overall accesses
system.cpu.dcache.overall_mshr_miss_rate::.switch_cpus_1.data     0.007659                       # mshr miss rate for overall accesses
system.cpu.dcache.overall_mshr_miss_rate::total     0.012522                       # mshr miss rate for overall accesses
system.cpu.dcache.overall_mshr_misses::.cpu.data            2                       # number of overall MSHR misses
system.cpu.dcache.overall_mshr_misses::.switch_cpus.data        11839                       # number of overall MSHR misses
system.cpu.dcache.overall_mshr_misses::.switch_cpus_1.data         7871                       # number of overall MSHR misses
system.cpu.dcache.overall_mshr_misses::total        19712                       # number of overall MSHR misses
system.cpu.dcache.pwrStateResidencyTicks::UNDEFINED  10859613000                       # Cumulative time (in ticks) in various power states
system.cpu.dcache.replacements                  18686                       # number of replacements
system.cpu.dcache.tags.age_task_id_blocks_1024::0           73                       # Occupied blocks per task id
system.cpu.dcache.tags.age_task_id_blocks_1024::1          588                       # Occupied blocks per task id
system.cpu.dcache.tags.age_task_id_blocks_1024::2          355                       # Occupied blocks per task id
system.cpu.dcache.tags.age_task_id_blocks_1024::3            8                       # Occupied blocks per task id
system.cpu.dcache.tags.avg_refs             79.619635                       # Average number of references to valid blocks.
system.cpu.dcache.tags.data_accesses          3168086                       # Number of data accesses
system.cpu.dcache.tags.occ_blocks::.cpu.data     0.086067                       # Average occupied blocks per requestor
system.cpu.dcache.tags.occ_blocks::.switch_cpus.data   658.948382                       # Average occupied blocks per requestor
system.cpu.dcache.tags.occ_blocks::.switch_cpus_1.data   342.479520                       # Average occupied blocks per requestor
system.cpu.dcache.tags.occ_percent::.cpu.data     0.000084                       # Average percentage of cache occupancy
system.cpu.dcache.tags.occ_percent::.switch_cpus.data     0.643504                       # Average percentage of cache occupancy
system.cpu.dcache.tags.occ_percent::.switch_cpus_1.data     0.334453                       # Average percentage of cache occupancy
system.cpu.dcache.tags.occ_percent::total     0.978041                       # Average percentage of cache occupancy
system.cpu.dcache.tags.occ_task_id_blocks::1024         1024                       # Occupied blocks per task id
system.cpu.dcache.tags.occ_task_id_percent::1024            1                       # Percentage of cache occupancy per task id
system.cpu.dcache.tags.pwrStateResidencyTicks::UNDEFINED  10859613000                       # Cumulative time (in ticks) in various power states
system.cpu.dcache.tags.sampled_refs             19710                       # Sample count of references to valid blocks.
system.cpu.dcache.tags.tag_accesses           3168086                       # Number of tag accesses
system.cpu.dcache.tags.tagsinuse          1001.513968                       # Cycle average of tags in use
system.cpu.dcache.tags.total_refs             1569303                       # Total number of references to valid blocks.
system.cpu.dcache.tags.warmup_cycle            225000                       # Cycle when the warmup percentage was hit.
system.cpu.dcache.writebacks::.writebacks         8032                       # number of writebacks
system.cpu.dcache.writebacks::total              8032                       # number of writebacks
system.cpu.decode.BlockedCycles                     2                       # Number of cycles decode is blocked
system.cpu.decode.DecodedInsts                     32                       # Number of instructions handled by decode
system.cpu.decode.IdleCycles                       39                       # Number of cycles decode is idle
system.cpu.decode.RunCycles                         5                       # Number of cycles decode is running
system.cpu.decode.SquashCycles                      3                       # Number of cycles decode is squashing
system.cpu.dtb.rdAccesses                           2                       # TLB accesses on read requests
system.cpu.dtb.rdMisses                             1                       # TLB misses on read requests
system.cpu.dtb.walker.pwrStateResidencyTicks::UNDEFINED  10859613000                       # Cumulative time (in ticks) in various power states
system.cpu.dtb.wrAccesses                           5                       # TLB accesses on write requests
system.cpu.dtb.wrMisses                             1                       # TLB misses on write requests
system.cpu.dtb_walker_cache.avg_blocked_cycles::no_mshrs          nan                       # average number of cycles each access was blocked
system.cpu.dtb_walker_cache.avg_blocked_cycles::no_targets          nan                       # average number of cycles each access was blocked
system.cpu.dtb_walker_cache.blocked::no_mshrs            0                       # number of cycles access was blocked
system.cpu.dtb_walker_cache.blocked::no_targets            0                       # number of cycles access was blocked
system.cpu.dtb_walker_cache.blocked_cycles::no_mshrs            0                       # number of cycles access was blocked
system.cpu.dtb_walker_cache.blocked_cycles::no_targets            0                       # number of cycles access was blocked
system.cpu.dtb_walker_cache.pwrStateResidencyTicks::UNDEFINED  10859613000                       # Cumulative time (in ticks) in various power states
system.cpu.dtb_walker_cache.replacements            0                       # number of replacements
system.cpu.dtb_walker_cache.tags.avg_refs          nan                       # Average number of references to valid blocks.
system.cpu.dtb_walker_cache.tags.data_accesses            0                       # Number of data accesses
system.cpu.dtb_walker_cache.tags.pwrStateResidencyTicks::UNDEFINED  10859613000                       # Cumulative time (in ticks) in various power states
system.cpu.dtb_walker_cache.tags.sampled_refs            0                       # Sample count of references to valid blocks.
system.cpu.dtb_walker_cache.tags.tag_accesses            0                       # Number of tag accesses
system.cpu.dtb_walker_cache.tags.tagsinuse            0                       # Cycle average of tags in use
system.cpu.dtb_walker_cache.tags.total_refs            0                       # Total number of references to valid blocks.
system.cpu.dtb_walker_cache.tags.warmup_cycle            0                       # Cycle when the warmup percentage was hit.
system.cpu.fetch.Branches                           1                       # Number of branches that fetch encountered
system.cpu.fetch.CacheLines                         5                       # Number of cache lines fetched
system.cpu.fetch.Cycles                             5                       # Number of cycles fetch has run and was not squashing or blocked
system.cpu.fetch.IcacheSquashes                     3                       # Number of outstanding Icache misses that were squashed
system.cpu.fetch.Insts                             18                       # Number of instructions fetch has processed
system.cpu.fetch.PendingDrainCycles                 6                       # Number of cycles fetch has spent waiting on pipes to drain
system.cpu.fetch.SquashCycles                       5                       # Number of cycles fetch has spent squashing
system.cpu.fetch.branchRate                  0.004065                       # Number of branch fetches per cycle
system.cpu.fetch.icacheStallCycles                 36                       # Number of cycles fetch is stalled on an Icache miss
system.cpu.fetch.rate                        0.073171                       # Number of inst fetches per cycle
system.cpu.fetch.rateDist::samples                 49                       # Number of instructions fetched each cycle (Total)
system.cpu.fetch.rateDist::mean              0.653061                       # Number of instructions fetched each cycle (Total)
system.cpu.fetch.rateDist::stdev             2.097131                       # Number of instructions fetched each cycle (Total)
system.cpu.fetch.rateDist::underflows               0      0.00%      0.00% # Number of instructions fetched each cycle (Total)
system.cpu.fetch.rateDist::0                       44     89.80%     89.80% # Number of instructions fetched each cycle (Total)
system.cpu.fetch.rateDist::1                        0      0.00%     89.80% # Number of instructions fetched each cycle (Total)
system.cpu.fetch.rateDist::2                        1      2.04%     91.84% # Number of instructions fetched each cycle (Total)
system.cpu.fetch.rateDist::3                        0      0.00%     91.84% # Number of instructions fetched each cycle (Total)
system.cpu.fetch.rateDist::4                        0      0.00%     91.84% # Number of instructions fetched each cycle (Total)
system.cpu.fetch.rateDist::5                        0      0.00%     91.84% # Number of instructions fetched each cycle (Total)
system.cpu.fetch.rateDist::6                        1      2.04%     93.88% # Number of instructions fetched each cycle (Total)
system.cpu.fetch.rateDist::7                        0      0.00%     93.88% # Number of instructions fetched each cycle (Total)
system.cpu.fetch.rateDist::8                        3      6.12%    100.00% # Number of instructions fetched each cycle (Total)
system.cpu.fetch.rateDist::overflows                0      0.00%    100.00% # Number of instructions fetched each cycle (Total)
system.cpu.fetch.rateDist::min_value                0                       # Number of instructions fetched each cycle (Total)
system.cpu.fetch.rateDist::max_value                8                       # Number of instructions fetched each cycle (Total)
system.cpu.fetch.rateDist::total                   49                       # Number of instructions fetched each cycle (Total)
system.cpu.fp_regfile_reads                        56                       # number of floating regfile reads
system.cpu.icache.ReadReq_accesses::.cpu.inst            5                       # number of ReadReq accesses(hits+misses)
system.cpu.icache.ReadReq_accesses::.switch_cpus.inst      2061239                       # number of ReadReq accesses(hits+misses)
system.cpu.icache.ReadReq_accesses::.switch_cpus_1.inst       808308                       # number of ReadReq accesses(hits+misses)
system.cpu.icache.ReadReq_accesses::total      2869552                       # number of ReadReq accesses(hits+misses)
system.cpu.icache.ReadReq_avg_miss_latency::.cpu.inst       106200                       # average ReadReq miss latency
system.cpu.icache.ReadReq_avg_miss_latency::.switch_cpus.inst 59608.929310                       # average ReadReq miss latency
system.cpu.icache.ReadReq_avg_miss_latency::.switch_cpus_1.inst 28552.051576                       # average ReadReq miss latency
system.cpu.icache.ReadReq_avg_miss_latency::total 30498.423665                       # average ReadReq miss latency
system.cpu.icache.ReadReq_avg_mshr_miss_latency::.cpu.inst       104000                       # average ReadReq mshr miss latency
system.cpu.icache.ReadReq_avg_mshr_miss_latency::.switch_cpus.inst 57608.929310                       # average ReadReq mshr miss latency
system.cpu.icache.ReadReq_avg_mshr_miss_latency::.switch_cpus_1.inst 27948.660753                       # average ReadReq mshr miss latency
system.cpu.icache.ReadReq_avg_mshr_miss_latency::total 30046.836670                       # average ReadReq mshr miss latency
system.cpu.icache.ReadReq_hits::.switch_cpus.inst      2056401                       # number of ReadReq hits
system.cpu.icache.ReadReq_hits::.switch_cpus_1.inst       735755                       # number of ReadReq hits
system.cpu.icache.ReadReq_hits::total         2792156                       # number of ReadReq hits
system.cpu.icache.ReadReq_miss_latency::.cpu.inst       531000                       # number of ReadReq miss cycles
system.cpu.icache.ReadReq_miss_latency::.switch_cpus.inst    288388000                       # number of ReadReq miss cycles
system.cpu.icache.ReadReq_miss_latency::.switch_cpus_1.inst   2071536998                       # number of ReadReq miss cycles
system.cpu.icache.ReadReq_miss_latency::total   2360455998                       # number of ReadReq miss cycles
system.cpu.icache.ReadReq_miss_rate::.cpu.inst            1                       # miss rate for ReadReq accesses
system.cpu.icache.ReadReq_miss_rate::.switch_cpus.inst     0.002347                       # miss rate for ReadReq accesses
system.cpu.icache.ReadReq_miss_rate::.switch_cpus_1.inst     0.089759                       # miss rate for ReadReq accesses
system.cpu.icache.ReadReq_miss_rate::total     0.026971                       # miss rate for ReadReq accesses
system.cpu.icache.ReadReq_misses::.cpu.inst            5                       # number of ReadReq misses
system.cpu.icache.ReadReq_misses::.switch_cpus.inst         4838                       # number of ReadReq misses
system.cpu.icache.ReadReq_misses::.switch_cpus_1.inst        72553                       # number of ReadReq misses
system.cpu.icache.ReadReq_misses::total         77396                       # number of ReadReq misses
system.cpu.icache.ReadReq_mshr_hits::.cpu.inst            1                       # number of ReadReq MSHR hits
system.cpu.icache.ReadReq_mshr_hits::.switch_cpus_1.inst         8859                       # number of ReadReq MSHR hits
system.cpu.icache.ReadReq_mshr_hits::total         8860                       # number of ReadReq MSHR hits
system.cpu.icache.ReadReq_mshr_miss_latency::.cpu.inst       416000                       # number of ReadReq MSHR miss cycles
system.cpu.icache.ReadReq_mshr_miss_latency::.switch_cpus.inst    278712000                       # number of ReadReq MSHR miss cycles
system.cpu.icache.ReadReq_mshr_miss_latency::.switch_cpus_1.inst   1780161998                       # number of ReadReq MSHR miss cycles
system.cpu.icache.ReadReq_mshr_miss_latency::total   2059289998                       # number of ReadReq MSHR miss cycles
system.cpu.icache.ReadReq_mshr_miss_rate::.cpu.inst     0.800000                       # mshr miss rate for ReadReq accesses
system.cpu.icache.ReadReq_mshr_miss_rate::.switch_cpus.inst     0.002347                       # mshr miss rate for ReadReq accesses
system.cpu.icache.ReadReq_mshr_miss_rate::.switch_cpus_1.inst     0.078799                       # mshr miss rate for ReadReq accesses
system.cpu.icache.ReadReq_mshr_miss_rate::total     0.023884                       # mshr miss rate for ReadReq accesses
system.cpu.icache.ReadReq_mshr_misses::.cpu.inst            4                       # number of ReadReq MSHR misses
system.cpu.icache.ReadReq_mshr_misses::.switch_cpus.inst         4838                       # number of ReadReq MSHR misses
system.cpu.icache.ReadReq_mshr_misses::.switch_cpus_1.inst        63694                       # number of ReadReq MSHR misses
system.cpu.icache.ReadReq_mshr_misses::total        68536                       # number of ReadReq MSHR misses
system.cpu.icache.avg_blocked_cycles::no_mshrs    10.250000                       # average number of cycles each access was blocked
system.cpu.icache.avg_blocked_cycles::no_targets          nan                       # average number of cycles each access was blocked
system.cpu.icache.blocked::no_mshrs                44                       # number of cycles access was blocked
system.cpu.icache.blocked::no_targets               0                       # number of cycles access was blocked
system.cpu.icache.blocked_cycles::no_mshrs          451                       # number of cycles access was blocked
system.cpu.icache.blocked_cycles::no_targets            0                       # number of cycles access was blocked
system.cpu.icache.demand_accesses::.cpu.inst            5                       # number of demand (read+write) accesses
system.cpu.icache.demand_accesses::.switch_cpus.inst      2061239                       # number of demand (read+write) accesses
system.cpu.icache.demand_accesses::.switch_cpus_1.inst       808308                       # number of demand (read+write) accesses
system.cpu.icache.demand_accesses::total      2869552                       # number of demand (read+write) accesses
system.cpu.icache.demand_avg_miss_latency::.cpu.inst       106200                       # average overall miss latency
system.cpu.icache.demand_avg_miss_latency::.switch_cpus.inst 59608.929310                       # average overall miss latency
system.cpu.icache.demand_avg_miss_latency::.switch_cpus_1.inst 28552.051576                       # average overall miss latency
system.cpu.icache.demand_avg_miss_latency::total 30498.423665                       # average overall miss latency
system.cpu.icache.demand_avg_mshr_miss_latency::.cpu.inst       104000                       # average overall mshr miss latency
system.cpu.icache.demand_avg_mshr_miss_latency::.switch_cpus.inst 57608.929310                       # average overall mshr miss latency
system.cpu.icache.demand_avg_mshr_miss_latency::.switch_cpus_1.inst 27948.660753                       # average overall mshr miss latency
system.cpu.icache.demand_avg_mshr_miss_latency::total 30046.836670                       # average overall mshr miss latency
system.cpu.icache.demand_hits::.switch_cpus.inst      2056401                       # number of demand (read+write) hits
system.cpu.icache.demand_hits::.switch_cpus_1.inst       735755                       # number of demand (read+write) hits
system.cpu.icache.demand_hits::total          2792156                       # number of demand (read+write) hits
system.cpu.icache.demand_miss_latency::.cpu.inst       531000                       # number of demand (read+write) miss cycles
system.cpu.icache.demand_miss_latency::.switch_cpus.inst    288388000                       # number of demand (read+write) miss cycles
system.cpu.icache.demand_miss_latency::.switch_cpus_1.inst   2071536998                       # number of demand (read+write) miss cycles
system.cpu.icache.demand_miss_latency::total   2360455998                       # number of demand (read+write) miss cycles
system.cpu.icache.demand_miss_rate::.cpu.inst            1                       # miss rate for demand accesses
system.cpu.icache.demand_miss_rate::.switch_cpus.inst     0.002347                       # miss rate for demand accesses
system.cpu.icache.demand_miss_rate::.switch_cpus_1.inst     0.089759                       # miss rate for demand accesses
system.cpu.icache.demand_miss_rate::total     0.026971                       # miss rate for demand accesses
system.cpu.icache.demand_misses::.cpu.inst            5                       # number of demand (read+write) misses
system.cpu.icache.demand_misses::.switch_cpus.inst         4838                       # number of demand (read+write) misses
system.cpu.icache.demand_misses::.switch_cpus_1.inst        72553                       # number of demand (read+write) misses
system.cpu.icache.demand_misses::total          77396                       # number of demand (read+write) misses
system.cpu.icache.demand_mshr_hits::.cpu.inst            1                       # number of demand (read+write) MSHR hits
system.cpu.icache.demand_mshr_hits::.switch_cpus_1.inst         8859                       # number of demand (read+write) MSHR hits
system.cpu.icache.demand_mshr_hits::total         8860                       # number of demand (read+write) MSHR hits
system.cpu.icache.demand_mshr_miss_latency::.cpu.inst       416000                       # number of demand (read+write) MSHR miss cycles
system.cpu.icache.demand_mshr_miss_latency::.switch_cpus.inst    278712000                       # number of demand (read+write) MSHR miss cycles
system.cpu.icache.demand_mshr_miss_latency::.switch_cpus_1.inst   1780161998                       # number of demand (read+write) MSHR miss cycles
system.cpu.icache.demand_mshr_miss_latency::total   2059289998                       # number of demand (read+write) MSHR miss cycles
system.cpu.icache.demand_mshr_miss_rate::.cpu.inst     0.800000                       # mshr miss rate for demand accesses
system.cpu.icache.demand_mshr_miss_rate::.switch_cpus.inst     0.002347                       # mshr miss rate for demand accesses
system.cpu.icache.demand_mshr_miss_rate::.switch_cpus_1.inst     0.078799                       # mshr miss rate for demand accesses
system.cpu.icache.demand_mshr_miss_rate::total     0.023884                       # mshr miss rate for demand accesses
system.cpu.icache.demand_mshr_misses::.cpu.inst            4                       # number of demand (read+write) MSHR misses
system.cpu.icache.demand_mshr_misses::.switch_cpus.inst         4838                       # number of demand (read+write) MSHR misses
system.cpu.icache.demand_mshr_misses::.switch_cpus_1.inst        63694                       # number of demand (read+write) MSHR misses
system.cpu.icache.demand_mshr_misses::total        68536                       # number of demand (read+write) MSHR misses
system.cpu.icache.overall_accesses::.cpu.inst            5                       # number of overall (read+write) accesses
system.cpu.icache.overall_accesses::.switch_cpus.inst      2061239                       # number of overall (read+write) accesses
system.cpu.icache.overall_accesses::.switch_cpus_1.inst       808308                       # number of overall (read+write) accesses
system.cpu.icache.overall_accesses::total      2869552                       # number of overall (read+write) accesses
system.cpu.icache.overall_avg_miss_latency::.cpu.inst       106200                       # average overall miss latency
system.cpu.icache.overall_avg_miss_latency::.switch_cpus.inst 59608.929310                       # average overall miss latency
system.cpu.icache.overall_avg_miss_latency::.switch_cpus_1.inst 28552.051576                       # average overall miss latency
system.cpu.icache.overall_avg_miss_latency::total 30498.423665                       # average overall miss latency
system.cpu.icache.overall_avg_mshr_miss_latency::.cpu.inst       104000                       # average overall mshr miss latency
system.cpu.icache.overall_avg_mshr_miss_latency::.switch_cpus.inst 57608.929310                       # average overall mshr miss latency
system.cpu.icache.overall_avg_mshr_miss_latency::.switch_cpus_1.inst 27948.660753                       # average overall mshr miss latency
system.cpu.icache.overall_avg_mshr_miss_latency::total 30046.836670                       # average overall mshr miss latency
system.cpu.icache.overall_hits::.switch_cpus.inst      2056401                       # number of overall hits
system.cpu.icache.overall_hits::.switch_cpus_1.inst       735755                       # number of overall hits
system.cpu.icache.overall_hits::total         2792156                       # number of overall hits
system.cpu.icache.overall_miss_latency::.cpu.inst       531000                       # number of overall miss cycles
system.cpu.icache.overall_miss_latency::.switch_cpus.inst    288388000                       # number of overall miss cycles
system.cpu.icache.overall_miss_latency::.switch_cpus_1.inst   2071536998                       # number of overall miss cycles
system.cpu.icache.overall_miss_latency::total   2360455998                       # number of overall miss cycles
system.cpu.icache.overall_miss_rate::.cpu.inst            1                       # miss rate for overall accesses
system.cpu.icache.overall_miss_rate::.switch_cpus.inst     0.002347                       # miss rate for overall accesses
system.cpu.icache.overall_miss_rate::.switch_cpus_1.inst     0.089759                       # miss rate for overall accesses
system.cpu.icache.overall_miss_rate::total     0.026971                       # miss rate for overall accesses
system.cpu.icache.overall_misses::.cpu.inst            5                       # number of overall misses
system.cpu.icache.overall_misses::.switch_cpus.inst         4838                       # number of overall misses
system.cpu.icache.overall_misses::.switch_cpus_1.inst        72553                       # number of overall misses
system.cpu.icache.overall_misses::total         77396                       # number of overall misses
system.cpu.icache.overall_mshr_hits::.cpu.inst            1                       # number of overall MSHR hits
system.cpu.icache.overall_mshr_hits::.switch_cpus_1.inst         8859                       # number of overall MSHR hits
system.cpu.icache.overall_mshr_hits::total         8860                       # number of overall MSHR hits
system.cpu.icache.overall_mshr_miss_latency::.cpu.inst       416000                       # number of overall MSHR miss cycles
system.cpu.icache.overall_mshr_miss_latency::.switch_cpus.inst    278712000                       # number of overall MSHR miss cycles
system.cpu.icache.overall_mshr_miss_latency::.switch_cpus_1.inst   1780161998                       # number of overall MSHR miss cycles
system.cpu.icache.overall_mshr_miss_latency::total   2059289998                       # number of overall MSHR miss cycles
system.cpu.icache.overall_mshr_miss_rate::.cpu.inst     0.800000                       # mshr miss rate for overall accesses
system.cpu.icache.overall_mshr_miss_rate::.switch_cpus.inst     0.002347                       # mshr miss rate for overall accesses
system.cpu.icache.overall_mshr_miss_rate::.switch_cpus_1.inst     0.078799                       # mshr miss rate for overall accesses
system.cpu.icache.overall_mshr_miss_rate::total     0.023884                       # mshr miss rate for overall accesses
system.cpu.icache.overall_mshr_misses::.cpu.inst            4                       # number of overall MSHR misses
system.cpu.icache.overall_mshr_misses::.switch_cpus.inst         4838                       # number of overall MSHR misses
system.cpu.icache.overall_mshr_misses::.switch_cpus_1.inst        63694                       # number of overall MSHR misses
system.cpu.icache.overall_mshr_misses::total        68536                       # number of overall MSHR misses
system.cpu.icache.pwrStateResidencyTicks::UNDEFINED  10859613000                       # Cumulative time (in ticks) in various power states
system.cpu.icache.replacements                  68277                       # number of replacements
system.cpu.icache.tags.age_task_id_blocks_1024::0           76                       # Occupied blocks per task id
system.cpu.icache.tags.age_task_id_blocks_1024::1          125                       # Occupied blocks per task id
system.cpu.icache.tags.age_task_id_blocks_1024::2           55                       # Occupied blocks per task id
system.cpu.icache.tags.avg_refs             41.740585                       # Average number of references to valid blocks.
system.cpu.icache.tags.data_accesses          5807639                       # Number of data accesses
system.cpu.icache.tags.occ_blocks::.cpu.inst     0.048679                       # Average occupied blocks per requestor
system.cpu.icache.tags.occ_blocks::.switch_cpus.inst   161.100929                       # Average occupied blocks per requestor
system.cpu.icache.tags.occ_blocks::.switch_cpus_1.inst    93.411534                       # Average occupied blocks per requestor
system.cpu.icache.tags.occ_percent::.cpu.inst     0.000190                       # Average percentage of cache occupancy
system.cpu.icache.tags.occ_percent::.switch_cpus.inst     0.629301                       # Average percentage of cache occupancy
system.cpu.icache.tags.occ_percent::.switch_cpus_1.inst     0.364889                       # Average percentage of cache occupancy
system.cpu.icache.tags.occ_percent::total     0.994379                       # Average percentage of cache occupancy
system.cpu.icache.tags.occ_task_id_blocks::1024          256                       # Occupied blocks per task id
system.cpu.icache.tags.occ_task_id_percent::1024            1                       # Percentage of cache occupancy per task id
system.cpu.icache.tags.pwrStateResidencyTicks::UNDEFINED  10859613000                       # Cumulative time (in ticks) in various power states
system.cpu.icache.tags.sampled_refs             68535                       # Sample count of references to valid blocks.
system.cpu.icache.tags.tag_accesses           5807639                       # Number of tag accesses
system.cpu.icache.tags.tagsinuse           254.561142                       # Cycle average of tags in use
system.cpu.icache.tags.total_refs             2860691                       # Total number of references to valid blocks.
system.cpu.icache.tags.warmup_cycle            107000                       # Cycle when the warmup percentage was hit.
system.cpu.icache.writebacks::.writebacks        68277                       # number of writebacks
system.cpu.icache.writebacks::total             68277                       # number of writebacks
system.cpu.idleCycles                             197                       # Total number of cycles that the CPU has spent unscheduled due to idling
system.cpu.iew.branchMispredicts                    1                       # Number of branch mispredicts detected at execute
system.cpu.iew.exec_branches                        1                       # Number of branches executed
system.cpu.iew.exec_nop                             0                       # number of nop insts executed
system.cpu.iew.exec_rate                     0.085366                       # Inst execution rate
system.cpu.iew.exec_refs                            7                       # number of memory reference insts executed
system.cpu.iew.exec_stores                          5                       # Number of stores executed
system.cpu.iew.exec_swp                             0                       # number of swp insts executed
system.cpu.iew.iewBlockCycles                       2                       # Number of cycles IEW is blocking
system.cpu.iew.iewDispLoadInsts                     2                       # Number of dispatched load instructions
system.cpu.iew.iewDispNonSpecInsts                  0                       # Number of dispatched non-speculative instructions
system.cpu.iew.iewDispSquashedInsts                 0                       # Number of squashed instructions skipped by dispatch
system.cpu.iew.iewDispStoreInsts                    8                       # Number of dispatched store instructions
system.cpu.iew.iewDispatchedInsts                  32                       # Number of instructions dispatched to IQ
system.cpu.iew.iewExecLoadInsts                     2                       # Number of load instructions executed
system.cpu.iew.iewExecSquashedInsts                 3                       # Number of squashed instructions skipped in execute
system.cpu.iew.iewExecutedInsts                    21                       # Number of executed instructions
system.cpu.iew.iewIQFullEvents                      0                       # Number of times the IQ has become full, causing a stall
system.cpu.iew.iewIdleCycles                        0                       # Number of cycles IEW is idle
system.cpu.iew.iewLSQFullEvents                     0                       # Number of times the LSQ has become full, causing a stall
system.cpu.iew.iewSquashCycles                      3                       # Number of cycles IEW is squashing
system.cpu.iew.iewUnblockCycles                     0                       # Number of cycles IEW is unblocking
system.cpu.iew.lsq.thread0.blockedLoads             0                       # Number of blocked loads due to partial load-store forwarding
system.cpu.iew.lsq.thread0.cacheBlocked             0                       # Number of times an access to memory failed due to the cache being blocked
system.cpu.iew.lsq.thread0.forwLoads                1                       # Number of loads that had data forwarded from stores
system.cpu.iew.lsq.thread0.ignoredResponses            0                       # Number of memory responses ignored because the instruction is squashed
system.cpu.iew.lsq.thread0.invAddrLoads             0                       # Number of loads ignored due to an invalid address
system.cpu.iew.lsq.thread0.invAddrSwpfs             0                       # Number of software prefetches ignored due to an invalid address
system.cpu.iew.lsq.thread0.memOrderViolation            0                       # Number of memory ordering violations
system.cpu.iew.lsq.thread0.rescheduledLoads            0                       # Number of loads that were rescheduled
system.cpu.iew.lsq.thread0.squashedLoads            2                       # Number of loads squashed
system.cpu.iew.lsq.thread0.squashedStores            6                       # Number of stores squashed
system.cpu.iew.memOrderViolationEvents              0                       # Number of memory order violations
system.cpu.iew.predictedNotTakenIncorrect            1                       # Number of branches that were predicted not taken incorrectly
system.cpu.iew.predictedTakenIncorrect              0                       # Number of branches that were predicted taken incorrectly
system.cpu.iew.wb_consumers                        18                       # num instructions consuming a value
system.cpu.iew.wb_count                            20                       # cumulative count of insts written-back
system.cpu.iew.wb_fanout                     0.555556                       # average fanout of values written-back
system.cpu.iew.wb_producers                        10                       # num instructions producing a value
system.cpu.iew.wb_rate                       0.081301                       # insts written-back per cycle
system.cpu.iew.wb_sent                             20                       # cumulative count of insts sent to commit
system.cpu.int_regfile_reads                       77                       # number of integer regfile reads
system.cpu.int_regfile_writes                      14                       # number of integer regfile writes
system.cpu.interrupts.pwrStateResidencyTicks::UNDEFINED  10859613000                       # Cumulative time (in ticks) in various power states
system.cpu.ipc                               0.012195                       # IPC: Instructions Per Cycle
system.cpu.ipc_total                         0.012195                       # IPC: Total IPC of All Threads
system.cpu.iq.FU_type_0::No_OpClass                 0      0.00%      0.00% # Type of FU issued
system.cpu.iq.FU_type_0::IntAlu                    16     66.67%     66.67% # Type of FU issued
system.cpu.iq.FU_type_0::IntMult                    0      0.00%     66.67% # Type of FU issued
system.cpu.iq.FU_type_0::IntDiv                     0      0.00%     66.67% # Type of FU issued
system.cpu.iq.FU_type_0::FloatAdd                   0      0.00%     66.67% # Type of FU issued
system.cpu.iq.FU_type_0::FloatCmp                   0      0.00%     66.67% # Type of FU issued
system.cpu.iq.FU_type_0::FloatCvt                   0      0.00%     66.67% # Type of FU issued
system.cpu.iq.FU_type_0::FloatMult                  0      0.00%     66.67% # Type of FU issued
system.cpu.iq.FU_type_0::FloatMultAcc               0      0.00%     66.67% # Type of FU issued
system.cpu.iq.FU_type_0::FloatDiv                   0      0.00%     66.67% # Type of FU issued
system.cpu.iq.FU_type_0::FloatMisc                  0      0.00%     66.67% # Type of FU issued
system.cpu.iq.FU_type_0::FloatSqrt                  0      0.00%     66.67% # Type of FU issued
system.cpu.iq.FU_type_0::SimdAdd                    0      0.00%     66.67% # Type of FU issued
system.cpu.iq.FU_type_0::SimdAddAcc                 0      0.00%     66.67% # Type of FU issued
system.cpu.iq.FU_type_0::SimdAlu                    0      0.00%     66.67% # Type of FU issued
system.cpu.iq.FU_type_0::SimdCmp                    0      0.00%     66.67% # Type of FU issued
system.cpu.iq.FU_type_0::SimdCvt                    0      0.00%     66.67% # Type of FU issued
system.cpu.iq.FU_type_0::SimdMisc                   0      0.00%     66.67% # Type of FU issued
system.cpu.iq.FU_type_0::SimdMult                   0      0.00%     66.67% # Type of FU issued
system.cpu.iq.FU_type_0::SimdMultAcc                0      0.00%     66.67% # Type of FU issued
system.cpu.iq.FU_type_0::SimdShift                  0      0.00%     66.67% # Type of FU issued
system.cpu.iq.FU_type_0::SimdShiftAcc               0      0.00%     66.67% # Type of FU issued
system.cpu.iq.FU_type_0::SimdDiv                    0      0.00%     66.67% # Type of FU issued
system.cpu.iq.FU_type_0::SimdSqrt                   0      0.00%     66.67% # Type of FU issued
system.cpu.iq.FU_type_0::SimdFloatAdd               0      0.00%     66.67% # Type of FU issued
system.cpu.iq.FU_type_0::SimdFloatAlu               0      0.00%     66.67% # Type of FU issued
system.cpu.iq.FU_type_0::SimdFloatCmp               0      0.00%     66.67% # Type of FU issued
system.cpu.iq.FU_type_0::SimdFloatCvt               0      0.00%     66.67% # Type of FU issued
system.cpu.iq.FU_type_0::SimdFloatDiv               0      0.00%     66.67% # Type of FU issued
system.cpu.iq.FU_type_0::SimdFloatMisc              0      0.00%     66.67% # Type of FU issued
system.cpu.iq.FU_type_0::SimdFloatMult              0      0.00%     66.67% # Type of FU issued
system.cpu.iq.FU_type_0::SimdFloatMultAcc            0      0.00%     66.67% # Type of FU issued
system.cpu.iq.FU_type_0::SimdFloatSqrt              0      0.00%     66.67% # Type of FU issued
system.cpu.iq.FU_type_0::SimdReduceAdd              0      0.00%     66.67% # Type of FU issued
system.cpu.iq.FU_type_0::SimdReduceAlu              0      0.00%     66.67% # Type of FU issued
system.cpu.iq.FU_type_0::SimdReduceCmp              0      0.00%     66.67% # Type of FU issued
system.cpu.iq.FU_type_0::SimdFloatReduceAdd            0      0.00%     66.67% # Type of FU issued
system.cpu.iq.FU_type_0::SimdFloatReduceCmp            0      0.00%     66.67% # Type of FU issued
system.cpu.iq.FU_type_0::SimdAes                    0      0.00%     66.67% # Type of FU issued
system.cpu.iq.FU_type_0::SimdAesMix                 0      0.00%     66.67% # Type of FU issued
system.cpu.iq.FU_type_0::SimdSha1Hash               0      0.00%     66.67% # Type of FU issued
system.cpu.iq.FU_type_0::SimdSha1Hash2              0      0.00%     66.67% # Type of FU issued
system.cpu.iq.FU_type_0::SimdSha256Hash             0      0.00%     66.67% # Type of FU issued
system.cpu.iq.FU_type_0::SimdSha256Hash2            0      0.00%     66.67% # Type of FU issued
system.cpu.iq.FU_type_0::SimdShaSigma2              0      0.00%     66.67% # Type of FU issued
system.cpu.iq.FU_type_0::SimdShaSigma3              0      0.00%     66.67% # Type of FU issued
system.cpu.iq.FU_type_0::SimdPredAlu                0      0.00%     66.67% # Type of FU issued
system.cpu.iq.FU_type_0::MemRead                    2      8.33%     75.00% # Type of FU issued
system.cpu.iq.FU_type_0::MemWrite                   6     25.00%    100.00% # Type of FU issued
system.cpu.iq.FU_type_0::FloatMemRead               0      0.00%    100.00% # Type of FU issued
system.cpu.iq.FU_type_0::FloatMemWrite              0      0.00%    100.00% # Type of FU issued
system.cpu.iq.FU_type_0::IprAccess                  0      0.00%    100.00% # Type of FU issued
system.cpu.iq.FU_type_0::InstPrefetch               0      0.00%    100.00% # Type of FU issued
system.cpu.iq.FU_type_0::total                     24                       # Type of FU issued
system.cpu.iq.fp_alu_accesses                       0                       # Number of floating point alu accesses
system.cpu.iq.fp_inst_queue_reads                   0                       # Number of floating instruction queue reads
system.cpu.iq.fp_inst_queue_wakeup_accesses            0                       # Number of floating instruction queue wakeup accesses
system.cpu.iq.fp_inst_queue_writes                  0                       # Number of floating instruction queue writes
system.cpu.iq.fu_busy_cnt                           0                       # FU busy when requested
system.cpu.iq.fu_busy_rate                          0                       # FU busy rate (busy events/executed inst)
system.cpu.iq.fu_full::No_OpClass                   0                       # attempts to use FU when none available
system.cpu.iq.fu_full::IntAlu                       0                       # attempts to use FU when none available
system.cpu.iq.fu_full::IntMult                      0                       # attempts to use FU when none available
system.cpu.iq.fu_full::IntDiv                       0                       # attempts to use FU when none available
system.cpu.iq.fu_full::FloatAdd                     0                       # attempts to use FU when none available
system.cpu.iq.fu_full::FloatCmp                     0                       # attempts to use FU when none available
system.cpu.iq.fu_full::FloatCvt                     0                       # attempts to use FU when none available
system.cpu.iq.fu_full::FloatMult                    0                       # attempts to use FU when none available
system.cpu.iq.fu_full::FloatMultAcc                 0                       # attempts to use FU when none available
system.cpu.iq.fu_full::FloatDiv                     0                       # attempts to use FU when none available
system.cpu.iq.fu_full::FloatMisc                    0                       # attempts to use FU when none available
system.cpu.iq.fu_full::FloatSqrt                    0                       # attempts to use FU when none available
system.cpu.iq.fu_full::SimdAdd                      0                       # attempts to use FU when none available
system.cpu.iq.fu_full::SimdAddAcc                   0                       # attempts to use FU when none available
system.cpu.iq.fu_full::SimdAlu                      0                       # attempts to use FU when none available
system.cpu.iq.fu_full::SimdCmp                      0                       # attempts to use FU when none available
system.cpu.iq.fu_full::SimdCvt                      0                       # attempts to use FU when none available
system.cpu.iq.fu_full::SimdMisc                     0                       # attempts to use FU when none available
system.cpu.iq.fu_full::SimdMult                     0                       # attempts to use FU when none available
system.cpu.iq.fu_full::SimdMultAcc                  0                       # attempts to use FU when none available
system.cpu.iq.fu_full::SimdShift                    0                       # attempts to use FU when none available
system.cpu.iq.fu_full::SimdShiftAcc                 0                       # attempts to use FU when none available
system.cpu.iq.fu_full::SimdDiv                      0                       # attempts to use FU when none available
system.cpu.iq.fu_full::SimdSqrt                     0                       # attempts to use FU when none available
system.cpu.iq.fu_full::SimdFloatAdd                 0                       # attempts to use FU when none available
system.cpu.iq.fu_full::SimdFloatAlu                 0                       # attempts to use FU when none available
system.cpu.iq.fu_full::SimdFloatCmp                 0                       # attempts to use FU when none available
system.cpu.iq.fu_full::SimdFloatCvt                 0                       # attempts to use FU when none available
system.cpu.iq.fu_full::SimdFloatDiv                 0                       # attempts to use FU when none available
system.cpu.iq.fu_full::SimdFloatMisc                0                       # attempts to use FU when none available
system.cpu.iq.fu_full::SimdFloatMult                0                       # attempts to use FU when none available
system.cpu.iq.fu_full::SimdFloatMultAcc             0                       # attempts to use FU when none available
system.cpu.iq.fu_full::SimdFloatSqrt                0                       # attempts to use FU when none available
system.cpu.iq.fu_full::SimdReduceAdd                0                       # attempts to use FU when none available
system.cpu.iq.fu_full::SimdReduceAlu                0                       # attempts to use FU when none available
system.cpu.iq.fu_full::SimdReduceCmp                0                       # attempts to use FU when none available
system.cpu.iq.fu_full::SimdFloatReduceAdd            0                       # attempts to use FU when none available
system.cpu.iq.fu_full::SimdFloatReduceCmp            0                       # attempts to use FU when none available
system.cpu.iq.fu_full::SimdAes                      0                       # attempts to use FU when none available
system.cpu.iq.fu_full::SimdAesMix                   0                       # attempts to use FU when none available
system.cpu.iq.fu_full::SimdSha1Hash                 0                       # attempts to use FU when none available
system.cpu.iq.fu_full::SimdSha1Hash2                0                       # attempts to use FU when none available
system.cpu.iq.fu_full::SimdSha256Hash               0                       # attempts to use FU when none available
system.cpu.iq.fu_full::SimdSha256Hash2              0                       # attempts to use FU when none available
[...]
system.switch_cpus_1.iq.fu_full::FloatAdd            0      0.00%     96.07% # attempts to use FU when none available
system.switch_cpus_1.iq.fu_full::FloatCmp            0      0.00%     96.07% # attempts to use FU when none available
system.switch_cpus_1.iq.fu_full::FloatCvt            1      0.00%     96.08% # attempts to use FU when none available
system.switch_cpus_1.iq.fu_full::FloatMult            0      0.00%     96.08% # attempts to use FU when none available
system.switch_cpus_1.iq.fu_full::FloatMultAcc            0      0.00%     96.08% # attempts to use FU when none available
system.switch_cpus_1.iq.fu_full::FloatDiv            0      0.00%     96.08% # attempts to use FU when none available
system.switch_cpus_1.iq.fu_full::FloatMisc            0      0.00%     96.08% # attempts to use FU when none available
system.switch_cpus_1.iq.fu_full::FloatSqrt            0      0.00%     96.08% # attempts to use FU when none available
system.switch_cpus_1.iq.fu_full::SimdAdd            0      0.00%     96.08% # attempts to use FU when none available
system.switch_cpus_1.iq.fu_full::SimdAddAcc            0      0.00%     96.08% # attempts to use FU when none available
system.switch_cpus_1.iq.fu_full::SimdAlu         2160      1.68%     97.76% # attempts to use FU when none available
system.switch_cpus_1.iq.fu_full::SimdCmp            0      0.00%     97.76% # attempts to use FU when none available
system.switch_cpus_1.iq.fu_full::SimdCvt          311      0.24%     98.00% # attempts to use FU when none available
system.switch_cpus_1.iq.fu_full::SimdMisc            6      0.00%     98.00% # attempts to use FU when none available
system.switch_cpus_1.iq.fu_full::SimdMult            0      0.00%     98.00% # attempts to use FU when none available
system.switch_cpus_1.iq.fu_full::SimdMultAcc            0      0.00%     98.00% # attempts to use FU when none available
system.switch_cpus_1.iq.fu_full::SimdShift            0      0.00%     98.00% # attempts to use FU when none available
system.switch_cpus_1.iq.fu_full::SimdShiftAcc            0      0.00%     98.00% # attempts to use FU when none available
system.switch_cpus_1.iq.fu_full::SimdDiv            0      0.00%     98.00% # attempts to use FU when none available
system.switch_cpus_1.iq.fu_full::SimdSqrt            0      0.00%     98.00% # attempts to use FU when none available
system.switch_cpus_1.iq.fu_full::SimdFloatAdd            0      0.00%     98.00% # attempts to use FU when none available
system.switch_cpus_1.iq.fu_full::SimdFloatAlu            0      0.00%     98.00% # attempts to use FU when none available
system.switch_cpus_1.iq.fu_full::SimdFloatCmp            0      0.00%     98.00% # attempts to use FU when none available
system.switch_cpus_1.iq.fu_full::SimdFloatCvt            0      0.00%     98.00% # attempts to use FU when none available
system.switch_cpus_1.iq.fu_full::SimdFloatDiv            0      0.00%     98.00% # attempts to use FU when none available
system.switch_cpus_1.iq.fu_full::SimdFloatMisc            0      0.00%     98.00% # attempts to use FU when none available
system.switch_cpus_1.iq.fu_full::SimdFloatMult            0      0.00%     98.00% # attempts to use FU when none available
system.switch_cpus_1.iq.fu_full::SimdFloatMultAcc            0      0.00%     98.00% # attempts to use FU when none available
system.switch_cpus_1.iq.fu_full::SimdFloatSqrt            0      0.00%     98.00% # attempts to use FU when none available
system.switch_cpus_1.iq.fu_full::SimdReduceAdd            0      0.00%     98.00% # attempts to use FU when none available
system.switch_cpus_1.iq.fu_full::SimdReduceAlu            0      0.00%     98.00% # attempts to use FU when none available
system.switch_cpus_1.iq.fu_full::SimdReduceCmp            0      0.00%     98.00% # attempts to use FU when none available
system.switch_cpus_1.iq.fu_full::SimdFloatReduceAdd            0      0.00%     98.00% # attempts to use FU when none available
system.switch_cpus_1.iq.fu_full::SimdFloatReduceCmp            0      0.00%     98.00% # attempts to use FU when none available
system.switch_cpus_1.iq.fu_full::SimdAes            0      0.00%     98.00% # attempts to use FU when none available
system.switch_cpus_1.iq.fu_full::SimdAesMix            0      0.00%     98.00% # attempts to use FU when none available
system.switch_cpus_1.iq.fu_full::SimdSha1Hash            0      0.00%     98.00% # attempts to use FU when none available
system.switch_cpus_1.iq.fu_full::SimdSha1Hash2            0      0.00%     98.00% # attempts to use FU when none available
system.switch_cpus_1.iq.fu_full::SimdSha256Hash            0      0.00%     98.00% # attempts to use FU when none available
system.switch_cpus_1.iq.fu_full::SimdSha256Hash2            0      0.00%     98.00% # attempts to use FU when none available
system.switch_cpus_1.iq.fu_full::SimdShaSigma2            0      0.00%     98.00% # attempts to use FU when none available
system.switch_cpus_1.iq.fu_full::SimdShaSigma3            0      0.00%     98.00% # attempts to use FU when none available
system.switch_cpus_1.iq.fu_full::SimdPredAlu            0      0.00%     98.00% # attempts to use FU when none available
system.switch_cpus_1.iq.fu_full::MemRead         1303      1.01%     99.02% # attempts to use FU when none available
system.switch_cpus_1.iq.fu_full::MemWrite          819      0.64%     99.66% # attempts to use FU when none available
system.switch_cpus_1.iq.fu_full::FloatMemRead          430      0.33%     99.99% # attempts to use FU when none available
system.switch_cpus_1.iq.fu_full::FloatMemWrite           13      0.01%    100.00% # attempts to use FU when none available
system.switch_cpus_1.iq.fu_full::IprAccess            0      0.00%    100.00% # attempts to use FU when none available
system.switch_cpus_1.iq.fu_full::InstPrefetch            0      0.00%    100.00% # attempts to use FU when none available
system.switch_cpus_1.iq.int_alu_accesses      7323423                       # Number of integer alu accesses
system.switch_cpus_1.iq.int_inst_queue_reads     18738193                       # Number of integer instruction queue reads
system.switch_cpus_1.iq.int_inst_queue_wakeup_accesses      6749884                       # Number of integer instruction queue wakeup accesses
system.switch_cpus_1.iq.int_inst_queue_writes     12553594                       # Number of integer instruction queue writes
system.switch_cpus_1.iq.iqInstsAdded          8806292                       # Number of instructions added to the IQ (excludes non-spec)
system.switch_cpus_1.iq.iqInstsIssued         7462315                       # Number of instructions issued
system.switch_cpus_1.iq.iqNonSpecInstsAdded        43432                       # Number of non-speculative instructions added to the IQ
system.switch_cpus_1.iq.iqSquashedInstsExamined      3975247                       # Number of squashed instructions iterated over during squash; mainly for profiling
system.switch_cpus_1.iq.iqSquashedInstsIssued        41060                       # Number of squashed instructions issued
system.switch_cpus_1.iq.iqSquashedNonSpecRemoved        42865                       # Number of squashed non-spec instructions that were removed
system.switch_cpus_1.iq.iqSquashedOperandsExamined      5511599                       # Number of squashed operands that are examined and possibly removed from graph
system.switch_cpus_1.iq.issued_per_cycle::samples      4003543                       # Number of insts issued each cycle
system.switch_cpus_1.iq.issued_per_cycle::mean     1.863928                       # Number of insts issued each cycle
system.switch_cpus_1.iq.issued_per_cycle::stdev     2.423352                       # Number of insts issued each cycle
system.switch_cpus_1.iq.issued_per_cycle::underflows            0      0.00%      0.00% # Number of insts issued each cycle
system.switch_cpus_1.iq.issued_per_cycle::0      2099691     52.45%     52.45% # Number of insts issued each cycle
system.switch_cpus_1.iq.issued_per_cycle::1       294567      7.36%     59.80% # Number of insts issued each cycle
system.switch_cpus_1.iq.issued_per_cycle::2       305540      7.63%     67.44% # Number of insts issued each cycle
system.switch_cpus_1.iq.issued_per_cycle::3       270094      6.75%     74.18% # Number of insts issued each cycle
system.switch_cpus_1.iq.issued_per_cycle::4       245032      6.12%     80.30% # Number of insts issued each cycle
system.switch_cpus_1.iq.issued_per_cycle::5       282687      7.06%     87.36% # Number of insts issued each cycle
system.switch_cpus_1.iq.issued_per_cycle::6       262568      6.56%     93.92% # Number of insts issued each cycle
system.switch_cpus_1.iq.issued_per_cycle::7       169497      4.23%     98.15% # Number of insts issued each cycle
system.switch_cpus_1.iq.issued_per_cycle::8        73867      1.85%    100.00% # Number of insts issued each cycle
system.switch_cpus_1.iq.issued_per_cycle::overflows            0      0.00%    100.00% # Number of insts issued each cycle
system.switch_cpus_1.iq.issued_per_cycle::min_value            0                       # Number of insts issued each cycle
system.switch_cpus_1.iq.issued_per_cycle::max_value            8                       # Number of insts issued each cycle
system.switch_cpus_1.iq.issued_per_cycle::total      4003543                       # Number of insts issued each cycle
system.switch_cpus_1.iq.rate                 1.754923                       # Inst issue rate
system.switch_cpus_1.iq.vec_alu_accesses            0                       # Number of vector alu accesses
system.switch_cpus_1.iq.vec_inst_queue_reads            0                       # Number of vector instruction queue reads
system.switch_cpus_1.iq.vec_inst_queue_wakeup_accesses            0                       # Number of vector instruction queue wakeup accesses
system.switch_cpus_1.iq.vec_inst_queue_writes            0                       # Number of vector instruction queue writes
system.switch_cpus_1.itb.rdAccesses                 0                       # TLB accesses on read requests
system.switch_cpus_1.itb.rdMisses                   0                       # TLB misses on read requests
system.switch_cpus_1.itb.walker.pwrStateResidencyTicks::UNDEFINED  10859613000                       # Cumulative time (in ticks) in various power states
system.switch_cpus_1.itb.wrAccesses            808977                       # TLB accesses on write requests
system.switch_cpus_1.itb.wrMisses                 906                       # TLB misses on write requests
system.switch_cpus_1.memDep0.conflictingLoads        28853                       # Number of conflicting loads.
system.switch_cpus_1.memDep0.conflictingStores        27281                       # Number of conflicting stores.
system.switch_cpus_1.memDep0.insertedLoads      1001197                       # Number of loads inserted to the mem dependence unit.
system.switch_cpus_1.memDep0.insertedStores       576635                       # Number of stores inserted to the mem dependence unit.
system.switch_cpus_1.misc_regfile_reads       2945437                       # number of misc regfile reads
system.switch_cpus_1.misc_regfile_writes          469                       # number of misc regfile writes
system.switch_cpus_1.numCycles                4252219                       # number of cpu cycles simulated
system.switch_cpus_1.numWorkItemsCompleted            0                       # number of work items this cpu completed
system.switch_cpus_1.numWorkItemsStarted            0                       # number of work items this cpu started
system.switch_cpus_1.pwrStateResidencyTicks::OFF  10859613000                       # Cumulative time (in ticks) in various power states
system.switch_cpus_1.rename.BlockCycles        586849                       # Number of cycles rename is blocking
system.switch_cpus_1.rename.CommittedMaps      5426210                       # Number of HB maps that are committed
system.switch_cpus_1.rename.IQFullEvents        24799                       # Number of times rename has blocked due to IQ full
system.switch_cpus_1.rename.IdleCycles        1691185                       # Number of cycles rename is idle
system.switch_cpus_1.rename.LQFullEvents         2266                       # Number of times rename has blocked due to LQ full
system.switch_cpus_1.rename.ROBFullEvents         3785                       # Number of times rename has blocked due to ROB full
system.switch_cpus_1.rename.RenameLookups     25063641                       # Number of register rename lookups that rename has made
system.switch_cpus_1.rename.RenamedInsts     10260368                       # Number of instructions processed by rename
system.switch_cpus_1.rename.RenamedOperands     10780543                       # Number of destination operands rename has renamed
system.switch_cpus_1.rename.RunCycles         1484947                       # Number of cycles rename is running
system.switch_cpus_1.rename.SQFullEvents        18192                       # Number of times rename has blocked due to SQ full
system.switch_cpus_1.rename.SquashCycles       178468                       # Number of cycles rename is squashing
system.switch_cpus_1.rename.UnblockCycles        55584                       # Number of cycles rename is unblocking
system.switch_cpus_1.rename.UndoneMaps        5354333                       # Number of HB maps that are undone due to squashing
system.switch_cpus_1.rename.fp_rename_lookups       343443                       # Number of floating rename lookups
system.switch_cpus_1.rename.int_rename_lookups     14698139                       # Number of integer rename lookups
system.switch_cpus_1.rename.serializeStallCycles         6509                       # count of cycles rename stalled for serializing inst
system.switch_cpus_1.rename.serializingInsts          544                       # count of serializing insts renamed
system.switch_cpus_1.rename.skidInsts          119667                       # count of insts added to the skid buffer
system.switch_cpus_1.rename.tempSerializingInsts          543                       # count of temporary serializing insts renamed
system.switch_cpus_1.rob.rob_reads           11972828                       # The number of ROB reads
system.switch_cpus_1.rob.rob_writes          18363644                       # The number of ROB writes
system.switch_cpus_1.timesIdled                 24466                       # Number of times that the entire CPU went into an idle state and unscheduled itself
system.tol2bus.pkt_count_system.cpu.icache.mem_side::system.l2.cpu_side       205338                       # Packet count per connected master and slave (bytes)
system.tol2bus.pkt_count_system.cpu.dcache.mem_side::system.l2.cpu_side        58110                       # Packet count per connected master and slave (bytes)
system.tol2bus.pkt_count::total                263448                       # Packet count per connected master and slave (bytes)
system.tol2bus.pkt_size_system.cpu.icache.mem_side::system.l2.cpu_side      8755328                       # Cumulative packet size per connected master and slave (bytes)
system.tol2bus.pkt_size_system.cpu.dcache.mem_side::system.l2.cpu_side      1775488                       # Cumulative packet size per connected master and slave (bytes)
system.tol2bus.pkt_size::total               10530816                       # Cumulative packet size per connected master and slave (bytes)
system.tol2bus.pwrStateResidencyTicks::UNDEFINED  10859613000                       # Cumulative time (in ticks) in various power states
system.tol2bus.reqLayer0.occupancy          327829000                       # Layer occupancy (ticks)
system.tol2bus.reqLayer0.utilization              3.0                       # Layer utilization (%)
system.tol2bus.respLayer0.occupancy         205610994                       # Layer occupancy (ticks)
system.tol2bus.respLayer0.utilization             1.9                       # Layer utilization (%)
system.tol2bus.respLayer1.occupancy          59177954                       # Layer occupancy (ticks)
system.tol2bus.respLayer1.utilization             0.5                       # Layer utilization (%)
system.tol2bus.snoopTraffic                    205952                       # Total snoop traffic (bytes)
system.tol2bus.snoop_fanout::samples           102653                       # Request fanout histogram
system.tol2bus.snoop_fanout::mean            0.009449                       # Request fanout histogram
system.tol2bus.snoop_fanout::stdev           0.096748                       # Request fanout histogram
system.tol2bus.snoop_fanout::underflows             0      0.00%      0.00% # Request fanout histogram
system.tol2bus.snoop_fanout::0                 101683     99.06%     99.06% # Request fanout histogram
system.tol2bus.snoop_fanout::1                    970      0.94%    100.00% # Request fanout histogram
system.tol2bus.snoop_fanout::2                      0      0.00%    100.00% # Request fanout histogram
system.tol2bus.snoop_fanout::3                      0      0.00%    100.00% # Request fanout histogram
system.tol2bus.snoop_fanout::4                      0      0.00%    100.00% # Request fanout histogram
system.tol2bus.snoop_fanout::overflows              0      0.00%    100.00% # Request fanout histogram
system.tol2bus.snoop_fanout::min_value              0                       # Request fanout histogram
system.tol2bus.snoop_fanout::max_value              1                       # Request fanout histogram
system.tol2bus.snoop_fanout::total             102653                       # Request fanout histogram
system.tol2bus.snoop_filter.hit_multi_requests           66                       # Number of requests hitting in the snoop filter with multiple (>1) holders of the requested data.
system.tol2bus.snoop_filter.hit_multi_snoops            0                       # Number of snoops hitting in the snoop filter with multiple (>1) holders of the requested data.
system.tol2bus.snoop_filter.hit_single_requests        86965                       # Number of requests hitting in the snoop filter with a single holder of the requested data.
system.tol2bus.snoop_filter.hit_single_snoops          902                       # Number of snoops hitting in the snoop filter with a single holder of the requested data.
system.tol2bus.snoop_filter.tot_requests       175211                       # Total number of requests made to the snoop filter.
system.tol2bus.snoop_filter.tot_snoops            902                       # Total number of snoops made to the snoop filter.
system.tol2bus.snoops                           14415                       # Total snoops (count)
system.tol2bus.trans_dist::ReadResp             83847                       # Transaction distribution
system.tol2bus.trans_dist::WritebackDirty        11240                       # Transaction distribution
system.tol2bus.trans_dist::WritebackClean        68277                       # Transaction distribution
system.tol2bus.trans_dist::CleanEvict           21851                       # Transaction distribution
system.tol2bus.trans_dist::UpgradeReq               2                       # Transaction distribution
system.tol2bus.trans_dist::UpgradeResp              2                       # Transaction distribution
system.tol2bus.trans_dist::ReadExReq             4398                       # Transaction distribution
system.tol2bus.trans_dist::ReadExResp            4398                       # Transaction distribution
system.tol2bus.trans_dist::ReadCleanReq         68536                       # Transaction distribution
system.tol2bus.trans_dist::ReadSharedReq        15312                       # Transaction distribution
system.voltage_domain.voltage                       1                       # Voltage in Volts

---------- End Simulation Statistics   ----------
