
---------- Begin Simulation Statistics ----------
final_tick                                73104368000                       # Number of ticks from beginning of simulation (restored from checkpoints and never reset)
host_inst_rate                                  82374                       # Simulator instruction rate (inst/s)
host_mem_usage                                 806636                       # Number of bytes of host memory used
host_op_rate                                   151026                       # Simulator op (including micro ops) rate (op/s)
host_seconds                                   110.21                       # Real time elapsed on the host
host_tick_rate                              663340507                       # Simulator tick rate (ticks/s)
sim_freq                                 1000000000000                       # Frequency of simulated ticks
sim_insts                                     9078150                       # Number of instructions simulated
sim_ops                                      16643973                       # Number of ops (including micro ops) simulated
sim_seconds                                  0.073104                       # Number of seconds simulated
sim_ticks                                 73104368000                       # Number of ticks simulated
system.clk_domain.clock                          1000                       # Clock period in ticks
system.cpu.apic_clk_domain.clock                16000                       # Clock period in ticks
system.cpu.branchPred.BTBCorrect                    0                       # Number of correct BTB predictions (this stat may not work properly.
system.cpu.branchPred.BTBHitPct              0.000000                       # BTB Hit Percentage
system.cpu.branchPred.BTBHits                       0                       # Number of BTB hits
system.cpu.branchPred.BTBLookups               533100                       # Number of BTB lookups
system.cpu.branchPred.RASInCorrect                526                       # Number of incorrect RAS predictions.
system.cpu.branchPred.condIncorrect              3343                       # Number of conditional branches incorrect
system.cpu.branchPred.condPredicted            537813                       # Number of conditional branches predicted
system.cpu.branchPred.indirectHits             512301                       # Number of indirect target hits.
system.cpu.branchPred.indirectLookups          533100                       # Number of indirect predictor lookups.
system.cpu.branchPred.indirectMisses            20799                       # Number of indirect misses.
system.cpu.branchPred.lookups                  537813                       # Number of BP lookups
system.cpu.branchPred.usedRAS                    1753                       # Number of times the RAS was used to get a target.
system.cpu.branchPredindirectMispredicted         2023                       # Number of mispredicted indirect branches.
system.cpu.cc_regfile_reads                   5110119                       # number of cc regfile reads
system.cpu.cc_regfile_writes                 11073627                       # number of cc regfile writes
system.cpu.commit.amos                              0                       # Number of atomic instructions committed
system.cpu.commit.branchMispredicts              3372                       # The number of times a branch was mispredicted
system.cpu.commit.branches                     516932                       # Number of branches committed
system.cpu.commit.bw_lim_events                  5490                       # number cycles where commit BW limit reached
system.cpu.commit.commitNonSpecStalls              34                       # The number of times commit has been forced to stall to communicate backwards
system.cpu.commit.commitSquashedInsts          111581                       # The number of squashed insts skipped by commit
system.cpu.commit.committedInsts              9078150                       # Number of instructions committed
system.cpu.commit.committedOps               16643973                       # Number of ops (including micro ops) committed
system.cpu.commit.committed_per_cycle::samples     73057699                       # Number of insts commited each cycle
system.cpu.commit.committed_per_cycle::mean     0.227820                       # Number of insts commited each cycle
system.cpu.commit.committed_per_cycle::stdev     0.715699                       # Number of insts commited each cycle
system.cpu.commit.committed_per_cycle::underflows            0      0.00%      0.00% # Number of insts commited each cycle
system.cpu.commit.committed_per_cycle::0     63513958     86.94%     86.94% # Number of insts commited each cycle
system.cpu.commit.committed_per_cycle::1      5513781      7.55%     94.48% # Number of insts commited each cycle
system.cpu.commit.committed_per_cycle::2      2505561      3.43%     97.91% # Number of insts commited each cycle
system.cpu.commit.committed_per_cycle::3       510001      0.70%     98.61% # Number of insts commited each cycle
system.cpu.commit.committed_per_cycle::4       502801      0.69%     99.30% # Number of insts commited each cycle
system.cpu.commit.committed_per_cycle::5       503418      0.69%     99.99% # Number of insts commited each cycle
system.cpu.commit.committed_per_cycle::6         1970      0.00%     99.99% # Number of insts commited each cycle
system.cpu.commit.committed_per_cycle::7          719      0.00%     99.99% # Number of insts commited each cycle
system.cpu.commit.committed_per_cycle::8         5490      0.01%    100.00% # Number of insts commited each cycle
system.cpu.commit.committed_per_cycle::overflows            0      0.00%    100.00% # Number of insts commited each cycle
system.cpu.commit.committed_per_cycle::min_value            0                       # Number of insts commited each cycle
system.cpu.commit.committed_per_cycle::max_value            8                       # Number of insts commited each cycle
system.cpu.commit.committed_per_cycle::total     73057699                       # Number of insts commited each cycle
system.cpu.commit.fp_insts                        123                       # Number of committed floating point instructions.
system.cpu.commit.function_calls                  634                       # Number of function calls committed.
system.cpu.commit.int_insts                  16640875                       # Number of committed integer instructions.
system.cpu.commit.loads                       4021111                       # Number of loads committed
system.cpu.commit.membars                           0                       # Number of memory barriers committed
system.cpu.commit.op_class_0::No_OpClass         3068      0.02%      0.02% # Class of committed instruction
system.cpu.commit.op_class_0::IntAlu         10606816     63.73%     63.75% # Class of committed instruction
system.cpu.commit.op_class_0::IntMult              17      0.00%     63.75% # Class of committed instruction
system.cpu.commit.op_class_0::IntDiv             1260      0.01%     63.75% # Class of committed instruction
system.cpu.commit.op_class_0::FloatAdd              9      0.00%     63.75% # Class of committed instruction
system.cpu.commit.op_class_0::FloatCmp              0      0.00%     63.75% # Class of committed instruction
system.cpu.commit.op_class_0::FloatCvt             16      0.00%     63.75% # Class of committed instruction
system.cpu.commit.op_class_0::FloatMult             0      0.00%     63.75% # Class of committed instruction
system.cpu.commit.op_class_0::FloatMultAcc            0      0.00%     63.75% # Class of committed instruction
system.cpu.commit.op_class_0::FloatDiv              0      0.00%     63.75% # Class of committed instruction
system.cpu.commit.op_class_0::FloatMisc             0      0.00%     63.75% # Class of committed instruction
system.cpu.commit.op_class_0::FloatSqrt             0      0.00%     63.75% # Class of committed instruction
system.cpu.commit.op_class_0::SimdAdd               0      0.00%     63.75% # Class of committed instruction
system.cpu.commit.op_class_0::SimdAddAcc            0      0.00%     63.75% # Class of committed instruction
system.cpu.commit.op_class_0::SimdAlu               2      0.00%     63.75% # Class of committed instruction
system.cpu.commit.op_class_0::SimdCmp               0      0.00%     63.75% # Class of committed instruction
system.cpu.commit.op_class_0::SimdCvt               8      0.00%     63.75% # Class of committed instruction
system.cpu.commit.op_class_0::SimdMisc             15      0.00%     63.75% # Class of committed instruction
system.cpu.commit.op_class_0::SimdMult              0      0.00%     63.75% # Class of committed instruction
system.cpu.commit.op_class_0::SimdMultAcc            0      0.00%     63.75% # Class of committed instruction
system.cpu.commit.op_class_0::SimdShift             0      0.00%     63.75% # Class of committed instruction
system.cpu.commit.op_class_0::SimdShiftAcc            0      0.00%     63.75% # Class of committed instruction
system.cpu.commit.op_class_0::SimdDiv               0      0.00%     63.75% # Class of committed instruction
system.cpu.commit.op_class_0::SimdSqrt              0      0.00%     63.75% # Class of committed instruction
system.cpu.commit.op_class_0::SimdFloatAdd            0      0.00%     63.75% # Class of committed instruction
system.cpu.commit.op_class_0::SimdFloatAlu            0      0.00%     63.75% # Class of committed instruction
system.cpu.commit.op_class_0::SimdFloatCmp            0      0.00%     63.75% # Class of committed instruction
system.cpu.commit.op_class_0::SimdFloatCvt            0      0.00%     63.75% # Class of committed instruction
system.cpu.commit.op_class_0::SimdFloatDiv            0      0.00%     63.75% # Class of committed instruction
system.cpu.commit.op_class_0::SimdFloatMisc            0      0.00%     63.75% # Class of committed instruction
system.cpu.commit.op_class_0::SimdFloatMult            0      0.00%     63.75% # Class of committed instruction
system.cpu.commit.op_class_0::SimdFloatMultAcc            0      0.00%     63.75% # Class of committed instruction
system.cpu.commit.op_class_0::SimdFloatSqrt            0      0.00%     63.75% # Class of committed instruction
system.cpu.commit.op_class_0::SimdReduceAdd            0      0.00%     63.75% # Class of committed instruction
system.cpu.commit.op_class_0::SimdReduceAlu            0      0.00%     63.75% # Class of committed instruction
system.cpu.commit.op_class_0::SimdReduceCmp            0      0.00%     63.75% # Class of committed instruction
system.cpu.commit.op_class_0::SimdFloatReduceAdd            0      0.00%     63.75% # Class of committed instruction
system.cpu.commit.op_class_0::SimdFloatReduceCmp            0      0.00%     63.75% # Class of committed instruction
system.cpu.commit.op_class_0::SimdAes               0      0.00%     63.75% # Class of committed instruction
system.cpu.commit.op_class_0::SimdAesMix            0      0.00%     63.75% # Class of committed instruction
system.cpu.commit.op_class_0::SimdSha1Hash            0      0.00%     63.75% # Class of committed instruction
system.cpu.commit.op_class_0::SimdSha1Hash2            0      0.00%     63.75% # Class of committed instruction
system.cpu.commit.op_class_0::SimdSha256Hash            0      0.00%     63.75% # Class of committed instruction
system.cpu.commit.op_class_0::SimdSha256Hash2            0      0.00%     63.75% # Class of committed instruction
system.cpu.commit.op_class_0::SimdShaSigma2            0      0.00%     63.75% # Class of committed instruction
system.cpu.commit.op_class_0::SimdShaSigma3            0      0.00%     63.75% # Class of committed instruction
system.cpu.commit.op_class_0::SimdPredAlu            0      0.00%     63.75% # Class of committed instruction
system.cpu.commit.op_class_0::MemRead         4021075     24.16%     87.91% # Class of committed instruction
system.cpu.commit.op_class_0::MemWrite        2011619     12.09%    100.00% # Class of committed instruction
system.cpu.commit.op_class_0::FloatMemRead           36      0.00%    100.00% # Class of committed instruction
system.cpu.commit.op_class_0::FloatMemWrite           32      0.00%    100.00% # Class of committed instruction
system.cpu.commit.op_class_0::IprAccess             0      0.00%    100.00% # Class of committed instruction
system.cpu.commit.op_class_0::InstPrefetch            0      0.00%    100.00% # Class of committed instruction
system.cpu.commit.op_class_0::total          16643973                       # Class of committed instruction
system.cpu.commit.refs                        6032762                       # Number of memory references committed
system.cpu.commit.swp_count                         0                       # Number of s/w prefetches committed
system.cpu.commit.vec_insts                         0                       # Number of committed Vector instructions.
system.cpu.committedInsts                     9078150                       # Number of Instructions Simulated
system.cpu.committedOps                      16643973                       # Number of Ops (including micro ops) Simulated
system.cpu.cpi                               8.052783                       # CPI: Cycles Per Instruction
system.cpu.cpi_total                         8.052783                       # CPI: Total CPI of All Threads
system.cpu.dcache.ReadReq_accesses::.cpu.data      2528344                       # number of ReadReq accesses(hits+misses)
system.cpu.dcache.ReadReq_accesses::total      2528344                       # number of ReadReq accesses(hits+misses)
system.cpu.dcache.ReadReq_avg_miss_latency::.cpu.data 122423.563721                       # average ReadReq miss latency
system.cpu.dcache.ReadReq_avg_miss_latency::total 122423.563721                       # average ReadReq miss latency
system.cpu.dcache.ReadReq_avg_mshr_miss_latency::.cpu.data 120649.170593                       # average ReadReq mshr miss latency
system.cpu.dcache.ReadReq_avg_mshr_miss_latency::total 120649.170593                       # average ReadReq mshr miss latency
system.cpu.dcache.ReadReq_hits::.cpu.data      2032166                       # number of ReadReq hits
system.cpu.dcache.ReadReq_hits::total         2032166                       # number of ReadReq hits
system.cpu.dcache.ReadReq_miss_latency::.cpu.data  60743879000                       # number of ReadReq miss cycles
system.cpu.dcache.ReadReq_miss_latency::total  60743879000                       # number of ReadReq miss cycles
system.cpu.dcache.ReadReq_miss_rate::.cpu.data     0.196246                       # miss rate for ReadReq accesses
system.cpu.dcache.ReadReq_miss_rate::total     0.196246                       # miss rate for ReadReq accesses
system.cpu.dcache.ReadReq_misses::.cpu.data       496178                       # number of ReadReq misses
system.cpu.dcache.ReadReq_misses::total        496178                       # number of ReadReq misses
system.cpu.dcache.ReadReq_mshr_hits::.cpu.data         2753                       # number of ReadReq MSHR hits
system.cpu.dcache.ReadReq_mshr_hits::total         2753                       # number of ReadReq MSHR hits
system.cpu.dcache.ReadReq_mshr_miss_latency::.cpu.data  59531317000                       # number of ReadReq MSHR miss cycles
system.cpu.dcache.ReadReq_mshr_miss_latency::total  59531317000                       # number of ReadReq MSHR miss cycles
system.cpu.dcache.ReadReq_mshr_miss_rate::.cpu.data     0.195157                       # mshr miss rate for ReadReq accesses
system.cpu.dcache.ReadReq_mshr_miss_rate::total     0.195157                       # mshr miss rate for ReadReq accesses
system.cpu.dcache.ReadReq_mshr_misses::.cpu.data       493425                       # number of ReadReq MSHR misses
system.cpu.dcache.ReadReq_mshr_misses::total       493425                       # number of ReadReq MSHR misses
system.cpu.dcache.WriteReq_accesses::.cpu.data      2011652                       # number of WriteReq accesses(hits+misses)
system.cpu.dcache.WriteReq_accesses::total      2011652                       # number of WriteReq accesses(hits+misses)
system.cpu.dcache.WriteReq_avg_miss_latency::.cpu.data 107944.318486                       # average WriteReq miss latency
system.cpu.dcache.WriteReq_avg_miss_latency::total 107944.318486                       # average WriteReq miss latency
system.cpu.dcache.WriteReq_avg_mshr_miss_latency::.cpu.data 106434.682432                       # average WriteReq mshr miss latency
system.cpu.dcache.WriteReq_avg_mshr_miss_latency::total 106434.682432                       # average WriteReq mshr miss latency
system.cpu.dcache.WriteReq_hits::.cpu.data      2011203                       # number of WriteReq hits
system.cpu.dcache.WriteReq_hits::total        2011203                       # number of WriteReq hits
system.cpu.dcache.WriteReq_miss_latency::.cpu.data     48466999                       # number of WriteReq miss cycles
system.cpu.dcache.WriteReq_miss_latency::total     48466999                       # number of WriteReq miss cycles
system.cpu.dcache.WriteReq_miss_rate::.cpu.data     0.000223                       # miss rate for WriteReq accesses
system.cpu.dcache.WriteReq_miss_rate::total     0.000223                       # miss rate for WriteReq accesses
system.cpu.dcache.WriteReq_misses::.cpu.data          449                       # number of WriteReq misses
system.cpu.dcache.WriteReq_misses::total          449                       # number of WriteReq misses
system.cpu.dcache.WriteReq_mshr_hits::.cpu.data            5                       # number of WriteReq MSHR hits
system.cpu.dcache.WriteReq_mshr_hits::total            5                       # number of WriteReq MSHR hits
system.cpu.dcache.WriteReq_mshr_miss_latency::.cpu.data     47256999                       # number of WriteReq MSHR miss cycles
system.cpu.dcache.WriteReq_mshr_miss_latency::total     47256999                       # number of WriteReq MSHR miss cycles
system.cpu.dcache.WriteReq_mshr_miss_rate::.cpu.data     0.000221                       # mshr miss rate for WriteReq accesses
system.cpu.dcache.WriteReq_mshr_miss_rate::total     0.000221                       # mshr miss rate for WriteReq accesses
system.cpu.dcache.WriteReq_mshr_misses::.cpu.data          444                       # number of WriteReq MSHR misses
system.cpu.dcache.WriteReq_mshr_misses::total          444                       # number of WriteReq MSHR misses
system.cpu.dcache.avg_blocked_cycles::no_mshrs    63.771605                       # average number of cycles each access was blocked
system.cpu.dcache.avg_blocked_cycles::no_targets          nan                       # average number of cycles each access was blocked
system.cpu.dcache.blocked::no_mshrs               162                       # number of cycles access was blocked
system.cpu.dcache.blocked::no_targets               0                       # number of cycles access was blocked
system.cpu.dcache.blocked_cycles::no_mshrs        10331                       # number of cycles access was blocked
system.cpu.dcache.blocked_cycles::no_targets            0                       # number of cycles access was blocked
system.cpu.dcache.demand_accesses::.cpu.data      4539996                       # number of demand (read+write) accesses
system.cpu.dcache.demand_accesses::total      4539996                       # number of demand (read+write) accesses
system.cpu.dcache.demand_avg_miss_latency::.cpu.data 122410.473049                       # average overall miss latency
system.cpu.dcache.demand_avg_miss_latency::total 122410.473049                       # average overall miss latency
system.cpu.dcache.demand_avg_mshr_miss_latency::.cpu.data 120636.391430                       # average overall mshr miss latency
system.cpu.dcache.demand_avg_mshr_miss_latency::total 120636.391430                       # average overall mshr miss latency
system.cpu.dcache.demand_hits::.cpu.data      4043369                       # number of demand (read+write) hits
system.cpu.dcache.demand_hits::total          4043369                       # number of demand (read+write) hits
system.cpu.dcache.demand_miss_latency::.cpu.data  60792345999                       # number of demand (read+write) miss cycles
system.cpu.dcache.demand_miss_latency::total  60792345999                       # number of demand (read+write) miss cycles
system.cpu.dcache.demand_miss_rate::.cpu.data     0.109389                       # miss rate for demand accesses
system.cpu.dcache.demand_miss_rate::total     0.109389                       # miss rate for demand accesses
system.cpu.dcache.demand_misses::.cpu.data       496627                       # number of demand (read+write) misses
system.cpu.dcache.demand_misses::total         496627                       # number of demand (read+write) misses
system.cpu.dcache.demand_mshr_hits::.cpu.data         2758                       # number of demand (read+write) MSHR hits
system.cpu.dcache.demand_mshr_hits::total         2758                       # number of demand (read+write) MSHR hits
system.cpu.dcache.demand_mshr_miss_latency::.cpu.data  59578573999                       # number of demand (read+write) MSHR miss cycles
system.cpu.dcache.demand_mshr_miss_latency::total  59578573999                       # number of demand (read+write) MSHR miss cycles
system.cpu.dcache.demand_mshr_miss_rate::.cpu.data     0.108782                       # mshr miss rate for demand accesses
system.cpu.dcache.demand_mshr_miss_rate::total     0.108782                       # mshr miss rate for demand accesses
system.cpu.dcache.demand_mshr_misses::.cpu.data       493869                       # number of demand (read+write) MSHR misses
system.cpu.dcache.demand_mshr_misses::total       493869                       # number of demand (read+write) MSHR misses
system.cpu.dcache.overall_accesses::.cpu.data      4539996                       # number of overall (read+write) accesses
system.cpu.dcache.overall_accesses::total      4539996                       # number of overall (read+write) accesses
system.cpu.dcache.overall_avg_miss_latency::.cpu.data 122410.473049                       # average overall miss latency
system.cpu.dcache.overall_avg_miss_latency::total 122410.473049                       # average overall miss latency
system.cpu.dcache.overall_avg_mshr_miss_latency::.cpu.data 120636.391430                       # average overall mshr miss latency
system.cpu.dcache.overall_avg_mshr_miss_latency::total 120636.391430                       # average overall mshr miss latency
system.cpu.dcache.overall_hits::.cpu.data      4043369                       # number of overall hits
system.cpu.dcache.overall_hits::total         4043369                       # number of overall hits
system.cpu.dcache.overall_miss_latency::.cpu.data  60792345999                       # number of overall miss cycles
system.cpu.dcache.overall_miss_latency::total  60792345999                       # number of overall miss cycles
system.cpu.dcache.overall_miss_rate::.cpu.data     0.109389                       # miss rate for overall accesses
system.cpu.dcache.overall_miss_rate::total     0.109389                       # miss rate for overall accesses
system.cpu.dcache.overall_misses::.cpu.data       496627                       # number of overall misses
system.cpu.dcache.overall_misses::total        496627                       # number of overall misses
system.cpu.dcache.overall_mshr_hits::.cpu.data         2758                       # number of overall MSHR hits
system.cpu.dcache.overall_mshr_hits::total         2758                       # number of overall MSHR hits
system.cpu.dcache.overall_mshr_miss_latency::.cpu.data  59578573999                       # number of overall MSHR miss cycles
system.cpu.dcache.overall_mshr_miss_latency::total  59578573999                       # number of overall MSHR miss cycles
system.cpu.dcache.overall_mshr_miss_rate::.cpu.data     0.108782                       # mshr miss rate for overall accesses
system.cpu.dcache.overall_mshr_miss_rate::total     0.108782                       # mshr miss rate for overall accesses
system.cpu.dcache.overall_mshr_misses::.cpu.data       493869                       # number of overall MSHR misses
system.cpu.dcache.overall_mshr_misses::total       493869                       # number of overall MSHR misses
system.cpu.dcache.pwrStateResidencyTicks::UNDEFINED  73104368000                       # Cumulative time (in ticks) in various power states
system.cpu.dcache.replacements                 492845                       # number of replacements
system.cpu.dcache.tags.age_task_id_blocks_1024::0           97                       # Occupied blocks per task id
system.cpu.dcache.tags.age_task_id_blocks_1024::1          497                       # Occupied blocks per task id
system.cpu.dcache.tags.age_task_id_blocks_1024::2          429                       # Occupied blocks per task id
system.cpu.dcache.tags.age_task_id_blocks_1024::4            1                       # Occupied blocks per task id
system.cpu.dcache.tags.avg_refs              9.187129                       # Average number of references to valid blocks.
system.cpu.dcache.tags.data_accesses          9573861                       # Number of data accesses
system.cpu.dcache.tags.occ_blocks::.cpu.data  1022.962409                       # Average occupied blocks per requestor
system.cpu.dcache.tags.occ_percent::.cpu.data     0.998987                       # Average percentage of cache occupancy
system.cpu.dcache.tags.occ_percent::total     0.998987                       # Average percentage of cache occupancy
system.cpu.dcache.tags.occ_task_id_blocks::1024         1024                       # Occupied blocks per task id
system.cpu.dcache.tags.occ_task_id_percent::1024            1                       # Percentage of cache occupancy per task id
system.cpu.dcache.tags.pwrStateResidencyTicks::UNDEFINED  73104368000                       # Cumulative time (in ticks) in various power states
system.cpu.dcache.tags.sampled_refs            493869                       # Sample count of references to valid blocks.
system.cpu.dcache.tags.tag_accesses           9573861                       # Number of tag accesses
system.cpu.dcache.tags.tagsinuse          1022.962409                       # Cycle average of tags in use
system.cpu.dcache.tags.total_refs             4537238                       # Total number of references to valid blocks.
system.cpu.dcache.tags.warmup_cycle            244000                       # Cycle when the warmup percentage was hit.
system.cpu.dcache.writebacks::.writebacks          547                       # number of writebacks
system.cpu.dcache.writebacks::total               547                       # number of writebacks
system.cpu.decode.BlockedCycles              70242886                       # Number of cycles decode is blocked
system.cpu.decode.DecodedInsts               16794373                       # Number of instructions handled by decode
system.cpu.decode.IdleCycles                   723709                       # Number of cycles decode is idle
system.cpu.decode.RunCycles                     35837                       # Number of cycles decode is running
system.cpu.decode.SquashCycles                   3516                       # Number of cycles decode is squashing
system.cpu.decode.UnblockCycles               2069288                       # Number of cycles decode is unblocking
system.cpu.dtb.rdAccesses                     4031533                       # TLB accesses on read requests
system.cpu.dtb.rdMisses                        440370                       # TLB misses on read requests
system.cpu.dtb.walker.pwrStateResidencyTicks::UNDEFINED  73104368000                       # Cumulative time (in ticks) in various power states
system.cpu.dtb.wrAccesses                     2016064                       # TLB accesses on write requests
system.cpu.dtb.wrMisses                           103                       # TLB misses on write requests
system.cpu.dtb_walker_cache.avg_blocked_cycles::no_mshrs          nan                       # average number of cycles each access was blocked
system.cpu.dtb_walker_cache.avg_blocked_cycles::no_targets          nan                       # average number of cycles each access was blocked
system.cpu.dtb_walker_cache.blocked::no_mshrs            0                       # number of cycles access was blocked
system.cpu.dtb_walker_cache.blocked::no_targets            0                       # number of cycles access was blocked
system.cpu.dtb_walker_cache.blocked_cycles::no_mshrs            0                       # number of cycles access was blocked
system.cpu.dtb_walker_cache.blocked_cycles::no_targets            0                       # number of cycles access was blocked
system.cpu.dtb_walker_cache.pwrStateResidencyTicks::UNDEFINED  73104368000                       # Cumulative time (in ticks) in various power states
system.cpu.dtb_walker_cache.replacements            0                       # number of replacements
system.cpu.dtb_walker_cache.tags.avg_refs          nan                       # Average number of references to valid blocks.
system.cpu.dtb_walker_cache.tags.data_accesses            0                       # Number of data accesses
system.cpu.dtb_walker_cache.tags.pwrStateResidencyTicks::UNDEFINED  73104368000                       # Cumulative time (in ticks) in various power states
system.cpu.dtb_walker_cache.tags.sampled_refs            0                       # Sample count of references to valid blocks.
system.cpu.dtb_walker_cache.tags.tag_accesses            0                       # Number of tag accesses
system.cpu.dtb_walker_cache.tags.tagsinuse            0                       # Cycle average of tags in use
system.cpu.dtb_walker_cache.tags.total_refs            0                       # Total number of references to valid blocks.
system.cpu.dtb_walker_cache.tags.warmup_cycle            0                       # Cycle when the warmup percentage was hit.
system.cpu.fetch.Branches                      537813                       # Number of branches that fetch encountered
system.cpu.fetch.CacheLines                   1020897                       # Number of cache lines fetched
system.cpu.fetch.Cycles                      72028461                       # Number of cycles fetch has run and was not squashing or blocked
system.cpu.fetch.IcacheSquashes                  1347                       # Number of outstanding Icache misses that were squashed
system.cpu.fetch.Insts                        9178463                       # Number of instructions fetch has processed
system.cpu.fetch.MiscStallCycles                   26                       # Number of cycles fetch has spent waiting on interrupts, or bad addresses, or out of MSHRs
system.cpu.fetch.PendingQuiesceStallCycles           12                       # Number of stall cycles due to pending quiesce instructions
system.cpu.fetch.PendingTrapStallCycles           370                       # Number of stall cycles due to pending traps
system.cpu.fetch.SquashCycles                    7032                       # Number of cycles fetch has spent squashing
system.cpu.fetch.branchRate                  0.007357                       # Number of branch fetches per cycle
system.cpu.fetch.icacheStallCycles            1042851                       # Number of cycles fetch is stalled on an Icache miss
system.cpu.fetch.predictedBranches             514054                       # Number of branches that fetch has predicted taken
system.cpu.fetch.rate                        0.125553                       # Number of inst fetches per cycle
system.cpu.fetch.rateDist::samples           73075236                       # Number of instructions fetched each cycle (Total)
system.cpu.fetch.rateDist::mean              0.230231                       # Number of instructions fetched each cycle (Total)
system.cpu.fetch.rateDist::stdev             1.230744                       # Number of instructions fetched each cycle (Total)
system.cpu.fetch.rateDist::underflows               0      0.00%      0.00% # Number of instructions fetched each cycle (Total)
system.cpu.fetch.rateDist::0                 70147837     95.99%     95.99% # Number of instructions fetched each cycle (Total)
system.cpu.fetch.rateDist::1                   253256      0.35%     96.34% # Number of instructions fetched each cycle (Total)
system.cpu.fetch.rateDist::2                   189846      0.26%     96.60% # Number of instructions fetched each cycle (Total)
system.cpu.fetch.rateDist::3                   192786      0.26%     96.86% # Number of instructions fetched each cycle (Total)
system.cpu.fetch.rateDist::4                   254366      0.35%     97.21% # Number of instructions fetched each cycle (Total)
system.cpu.fetch.rateDist::5                   439801      0.60%     97.81% # Number of instructions fetched each cycle (Total)
system.cpu.fetch.rateDist::6                   127550      0.17%     97.99% # Number of instructions fetched each cycle (Total)
system.cpu.fetch.rateDist::7                   127224      0.17%     98.16% # Number of instructions fetched each cycle (Total)
system.cpu.fetch.rateDist::8                  1342570      1.84%    100.00% # Number of instructions fetched each cycle (Total)
system.cpu.fetch.rateDist::overflows                0      0.00%    100.00% # Number of instructions fetched each cycle (Total)
system.cpu.fetch.rateDist::min_value                0                       # Number of instructions fetched each cycle (Total)
system.cpu.fetch.rateDist::max_value                8                       # Number of instructions fetched each cycle (Total)
system.cpu.fetch.rateDist::total             73075236                       # Number of instructions fetched each cycle (Total)
system.cpu.fp_regfile_reads                       127                       # number of floating regfile reads
system.cpu.fp_regfile_writes                       77                       # number of floating regfile writes
system.cpu.icache.ReadReq_accesses::.cpu.inst      1020897                       # number of ReadReq accesses(hits+misses)
system.cpu.icache.ReadReq_accesses::total      1020897                       # number of ReadReq accesses(hits+misses)
system.cpu.icache.ReadReq_avg_miss_latency::.cpu.inst 88261.054422                       # average ReadReq miss latency
system.cpu.icache.ReadReq_avg_miss_latency::total 88261.054422                       # average ReadReq miss latency
system.cpu.icache.ReadReq_avg_mshr_miss_latency::.cpu.inst 91159.116022                       # average ReadReq mshr miss latency
system.cpu.icache.ReadReq_avg_mshr_miss_latency::total 91159.116022                       # average ReadReq mshr miss latency
system.cpu.icache.ReadReq_hits::.cpu.inst      1019721                       # number of ReadReq hits
system.cpu.icache.ReadReq_hits::total         1019721                       # number of ReadReq hits
system.cpu.icache.ReadReq_miss_latency::.cpu.inst    103795000                       # number of ReadReq miss cycles
system.cpu.icache.ReadReq_miss_latency::total    103795000                       # number of ReadReq miss cycles
system.cpu.icache.ReadReq_miss_rate::.cpu.inst     0.001152                       # miss rate for ReadReq accesses
system.cpu.icache.ReadReq_miss_rate::total     0.001152                       # miss rate for ReadReq accesses
system.cpu.icache.ReadReq_misses::.cpu.inst         1176                       # number of ReadReq misses
system.cpu.icache.ReadReq_misses::total          1176                       # number of ReadReq misses
system.cpu.icache.ReadReq_mshr_hits::.cpu.inst          271                       # number of ReadReq MSHR hits
system.cpu.icache.ReadReq_mshr_hits::total          271                       # number of ReadReq MSHR hits
system.cpu.icache.ReadReq_mshr_miss_latency::.cpu.inst     82499000                       # number of ReadReq MSHR miss cycles
system.cpu.icache.ReadReq_mshr_miss_latency::total     82499000                       # number of ReadReq MSHR miss cycles
system.cpu.icache.ReadReq_mshr_miss_rate::.cpu.inst     0.000886                       # mshr miss rate for ReadReq accesses
system.cpu.icache.ReadReq_mshr_miss_rate::total     0.000886                       # mshr miss rate for ReadReq accesses
system.cpu.icache.ReadReq_mshr_misses::.cpu.inst          905                       # number of ReadReq MSHR misses
system.cpu.icache.ReadReq_mshr_misses::total          905                       # number of ReadReq MSHR misses
system.cpu.icache.avg_blocked_cycles::no_mshrs          nan                       # average number of cycles each access was blocked
system.cpu.icache.avg_blocked_cycles::no_targets          nan                       # average number of cycles each access was blocked
system.cpu.icache.blocked::no_mshrs                 0                       # number of cycles access was blocked
system.cpu.icache.blocked::no_targets               0                       # number of cycles access was blocked
system.cpu.icache.blocked_cycles::no_mshrs            0                       # number of cycles access was blocked
system.cpu.icache.blocked_cycles::no_targets            0                       # number of cycles access was blocked
system.cpu.icache.demand_accesses::.cpu.inst      1020897                       # number of demand (read+write) accesses
system.cpu.icache.demand_accesses::total      1020897                       # number of demand (read+write) accesses
system.cpu.icache.demand_avg_miss_latency::.cpu.inst 88261.054422                       # average overall miss latency
system.cpu.icache.demand_avg_miss_latency::total 88261.054422                       # average overall miss latency
system.cpu.icache.demand_avg_mshr_miss_latency::.cpu.inst 91159.116022                       # average overall mshr miss latency
system.cpu.icache.demand_avg_mshr_miss_latency::total 91159.116022                       # average overall mshr miss latency
system.cpu.icache.demand_hits::.cpu.inst      1019721                       # number of demand (read+write) hits
system.cpu.icache.demand_hits::total          1019721                       # number of demand (read+write) hits
system.cpu.icache.demand_miss_latency::.cpu.inst    103795000                       # number of demand (read+write) miss cycles
system.cpu.icache.demand_miss_latency::total    103795000                       # number of demand (read+write) miss cycles
system.cpu.icache.demand_miss_rate::.cpu.inst     0.001152                       # miss rate for demand accesses
system.cpu.icache.demand_miss_rate::total     0.001152                       # miss rate for demand accesses
system.cpu.icache.demand_misses::.cpu.inst         1176                       # number of demand (read+write) misses
system.cpu.icache.demand_misses::total           1176                       # number of demand (read+write) misses
system.cpu.icache.demand_mshr_hits::.cpu.inst          271                       # number of demand (read+write) MSHR hits
system.cpu.icache.demand_mshr_hits::total          271                       # number of demand (read+write) MSHR hits
system.cpu.icache.demand_mshr_miss_latency::.cpu.inst     82499000                       # number of demand (read+write) MSHR miss cycles
system.cpu.icache.demand_mshr_miss_latency::total     82499000                       # number of demand (read+write) MSHR miss cycles
system.cpu.icache.demand_mshr_miss_rate::.cpu.inst     0.000886                       # mshr miss rate for demand accesses
system.cpu.icache.demand_mshr_miss_rate::total     0.000886                       # mshr miss rate for demand accesses
system.cpu.icache.demand_mshr_misses::.cpu.inst          905                       # number of demand (read+write) MSHR misses
system.cpu.icache.demand_mshr_misses::total          905                       # number of demand (read+write) MSHR misses
system.cpu.icache.overall_accesses::.cpu.inst      1020897                       # number of overall (read+write) accesses
system.cpu.icache.overall_accesses::total      1020897                       # number of overall (read+write) accesses
system.cpu.icache.overall_avg_miss_latency::.cpu.inst 88261.054422                       # average overall miss latency
system.cpu.icache.overall_avg_miss_latency::total 88261.054422                       # average overall miss latency
system.cpu.icache.overall_avg_mshr_miss_latency::.cpu.inst 91159.116022                       # average overall mshr miss latency
system.cpu.icache.overall_avg_mshr_miss_latency::total 91159.116022                       # average overall mshr miss latency
system.cpu.icache.overall_hits::.cpu.inst      1019721                       # number of overall hits
system.cpu.icache.overall_hits::total         1019721                       # number of overall hits
system.cpu.icache.overall_miss_latency::.cpu.inst    103795000                       # number of overall miss cycles
system.cpu.icache.overall_miss_latency::total    103795000                       # number of overall miss cycles
system.cpu.icache.overall_miss_rate::.cpu.inst     0.001152                       # miss rate for overall accesses
system.cpu.icache.overall_miss_rate::total     0.001152                       # miss rate for overall accesses
system.cpu.icache.overall_misses::.cpu.inst         1176                       # number of overall misses
system.cpu.icache.overall_misses::total          1176                       # number of overall misses
system.cpu.icache.overall_mshr_hits::.cpu.inst          271                       # number of overall MSHR hits
system.cpu.icache.overall_mshr_hits::total          271                       # number of overall MSHR hits
system.cpu.icache.overall_mshr_miss_latency::.cpu.inst     82499000                       # number of overall MSHR miss cycles
system.cpu.icache.overall_mshr_miss_latency::total     82499000                       # number of overall MSHR miss cycles
system.cpu.icache.overall_mshr_miss_rate::.cpu.inst     0.000886                       # mshr miss rate for overall accesses
system.cpu.icache.overall_mshr_miss_rate::total     0.000886                       # mshr miss rate for overall accesses
system.cpu.icache.overall_mshr_misses::.cpu.inst          905                       # number of overall MSHR misses
system.cpu.icache.overall_mshr_misses::total          905                       # number of overall MSHR misses
system.cpu.icache.pwrStateResidencyTicks::UNDEFINED  73104368000                       # Cumulative time (in ticks) in various power states
system.cpu.icache.replacements                    648                       # number of replacements
system.cpu.icache.tags.age_task_id_blocks_1024::0           50                       # Occupied blocks per task id
system.cpu.icache.tags.age_task_id_blocks_1024::4          206                       # Occupied blocks per task id
system.cpu.icache.tags.avg_refs           1129.009956                       # Average number of references to valid blocks.
system.cpu.icache.tags.data_accesses          2042698                       # Number of data accesses
system.cpu.icache.tags.occ_blocks::.cpu.inst   255.943056                       # Average occupied blocks per requestor
system.cpu.icache.tags.occ_percent::.cpu.inst     0.999778                       # Average percentage of cache occupancy
system.cpu.icache.tags.occ_percent::total     0.999778                       # Average percentage of cache occupancy
system.cpu.icache.tags.occ_task_id_blocks::1024          256                       # Occupied blocks per task id
system.cpu.icache.tags.occ_task_id_percent::1024            1                       # Percentage of cache occupancy per task id
system.cpu.icache.tags.pwrStateResidencyTicks::UNDEFINED  73104368000                       # Cumulative time (in ticks) in various power states
system.cpu.icache.tags.sampled_refs               904                       # Sample count of references to valid blocks.
system.cpu.icache.tags.tag_accesses           2042698                       # Number of tag accesses
system.cpu.icache.tags.tagsinuse           255.943056                       # Cycle average of tags in use
system.cpu.icache.tags.total_refs             1020625                       # Total number of references to valid blocks.
system.cpu.icache.tags.warmup_cycle            108000                       # Cycle when the warmup percentage was hit.
system.cpu.icache.writebacks::.writebacks          648                       # number of writebacks
system.cpu.icache.writebacks::total               648                       # number of writebacks
system.cpu.idleCycles                           29133                       # Total number of cycles that the CPU has spent unscheduled due to idling
system.cpu.iew.branchMispredicts                 4237                       # Number of branch mispredicts detected at execute
system.cpu.iew.exec_branches                   521292                       # Number of branches executed
system.cpu.iew.exec_nop                             0                       # number of nop insts executed
system.cpu.iew.exec_rate                     0.228572                       # Inst execution rate
system.cpu.iew.exec_refs                      6048072                       # number of memory reference insts executed
system.cpu.iew.exec_stores                    2016063                       # Number of stores executed
system.cpu.iew.exec_swp                             0                       # number of swp insts executed
system.cpu.iew.iewBlockCycles                58945326                       # Number of cycles IEW is blocking
system.cpu.iew.iewDispLoadInsts               4038503                       # Number of dispatched load instructions
system.cpu.iew.iewDispNonSpecInsts                 59                       # Number of dispatched non-speculative instructions
system.cpu.iew.iewDispSquashedInsts               203                       # Number of squashed instructions skipped by dispatch
system.cpu.iew.iewDispStoreInsts              2019405                       # Number of dispatched store instructions
system.cpu.iew.iewDispatchedInsts            16755547                       # Number of instructions dispatched to IQ
system.cpu.iew.iewExecLoadInsts               4032009                       # Number of load instructions executed
system.cpu.iew.iewExecSquashedInsts              6771                       # Number of squashed instructions skipped in execute
system.cpu.iew.iewExecutedInsts              16709640                       # Number of executed instructions
system.cpu.iew.iewIQFullEvents                    194                       # Number of times the IQ has become full, causing a stall
system.cpu.iew.iewIdleCycles                        0                       # Number of cycles IEW is idle
system.cpu.iew.iewLSQFullEvents                  2475                       # Number of times the LSQ has become full, causing a stall
system.cpu.iew.iewSquashCycles                   3516                       # Number of cycles IEW is squashing
system.cpu.iew.iewUnblockCycles                  2819                       # Number of cycles IEW is unblocking
system.cpu.iew.lsq.thread0.blockedLoads             0                       # Number of blocked loads due to partial load-store forwarding
system.cpu.iew.lsq.thread0.cacheBlocked           146                       # Number of times an access to memory failed due to the cache being blocked
system.cpu.iew.lsq.thread0.forwLoads          1502607                       # Number of loads that had data forwarded from stores
system.cpu.iew.lsq.thread0.ignoredResponses           71                       # Number of memory responses ignored because the instruction is squashed
system.cpu.iew.lsq.thread0.invAddrLoads             0                       # Number of loads ignored due to an invalid address
system.cpu.iew.lsq.thread0.invAddrSwpfs             0                       # Number of software prefetches ignored due to an invalid address
system.cpu.iew.lsq.thread0.memOrderViolation          156                       # Number of memory ordering violations
system.cpu.iew.lsq.thread0.rescheduledLoads            3                       # Number of loads that were rescheduled
system.cpu.iew.lsq.thread0.squashedLoads        17392                       # Number of loads squashed
system.cpu.iew.lsq.thread0.squashedStores         7754                       # Number of stores squashed
system.cpu.iew.memOrderViolationEvents            156                       # Number of memory order violations
system.cpu.iew.predictedNotTakenIncorrect         3201                       # Number of branches that were predicted not taken incorrectly
system.cpu.iew.predictedTakenIncorrect           1036                       # Number of branches that were predicted taken incorrectly
system.cpu.iew.wb_consumers                  17181155                       # num instructions consuming a value
system.cpu.iew.wb_count                      16705287                       # cumulative count of insts written-back
system.cpu.iew.wb_fanout                     0.703280                       # average fanout of values written-back
system.cpu.iew.wb_producers                  12083160                       # num instructions producing a value
system.cpu.iew.wb_rate                       0.228513                       # insts written-back per cycle
system.cpu.iew.wb_sent                       16707073                       # cumulative count of insts sent to commit
system.cpu.int_regfile_reads                 27808652                       # number of integer regfile reads
system.cpu.int_regfile_writes                14170179                       # number of integer regfile writes
system.cpu.interrupts.pwrStateResidencyTicks::UNDEFINED  73104368000                       # Cumulative time (in ticks) in various power states
system.cpu.ipc                               0.124181                       # IPC: Instructions Per Cycle
system.cpu.ipc_total                         0.124181                       # IPC: Total IPC of All Threads
system.cpu.iq.FU_type_0::No_OpClass              4355      0.03%      0.03% # Type of FU issued
system.cpu.iq.FU_type_0::IntAlu              10660261     63.77%     63.80% # Type of FU issued
system.cpu.iq.FU_type_0::IntMult                   39      0.00%     63.80% # Type of FU issued
system.cpu.iq.FU_type_0::IntDiv                  1356      0.01%     63.81% # Type of FU issued
system.cpu.iq.FU_type_0::FloatAdd                   9      0.00%     63.81% # Type of FU issued
system.cpu.iq.FU_type_0::FloatCmp                   0      0.00%     63.81% # Type of FU issued
system.cpu.iq.FU_type_0::FloatCvt                  16      0.00%     63.81% # Type of FU issued
system.cpu.iq.FU_type_0::FloatMult                  0      0.00%     63.81% # Type of FU issued
system.cpu.iq.FU_type_0::FloatMultAcc               0      0.00%     63.81% # Type of FU issued
system.cpu.iq.FU_type_0::FloatDiv                   0      0.00%     63.81% # Type of FU issued
system.cpu.iq.FU_type_0::FloatMisc                  0      0.00%     63.81% # Type of FU issued
system.cpu.iq.FU_type_0::FloatSqrt                  0      0.00%     63.81% # Type of FU issued
system.cpu.iq.FU_type_0::SimdAdd                    0      0.00%     63.81% # Type of FU issued
system.cpu.iq.FU_type_0::SimdAddAcc                 0      0.00%     63.81% # Type of FU issued
system.cpu.iq.FU_type_0::SimdAlu                    2      0.00%     63.81% # Type of FU issued
system.cpu.iq.FU_type_0::SimdCmp                    0      0.00%     63.81% # Type of FU issued
system.cpu.iq.FU_type_0::SimdCvt                   12      0.00%     63.81% # Type of FU issued
system.cpu.iq.FU_type_0::SimdMisc                  19      0.00%     63.81% # Type of FU issued
system.cpu.iq.FU_type_0::SimdMult                   0      0.00%     63.81% # Type of FU issued
system.cpu.iq.FU_type_0::SimdMultAcc                0      0.00%     63.81% # Type of FU issued
system.cpu.iq.FU_type_0::SimdShift                  0      0.00%     63.81% # Type of FU issued
system.cpu.iq.FU_type_0::SimdShiftAcc               0      0.00%     63.81% # Type of FU issued
system.cpu.iq.FU_type_0::SimdDiv                    0      0.00%     63.81% # Type of FU issued
system.cpu.iq.FU_type_0::SimdSqrt                   0      0.00%     63.81% # Type of FU issued
system.cpu.iq.FU_type_0::SimdFloatAdd               0      0.00%     63.81% # Type of FU issued
system.cpu.iq.FU_type_0::SimdFloatAlu               0      0.00%     63.81% # Type of FU issued
system.cpu.iq.FU_type_0::SimdFloatCmp               0      0.00%     63.81% # Type of FU issued
system.cpu.iq.FU_type_0::SimdFloatCvt               0      0.00%     63.81% # Type of FU issued
system.cpu.iq.FU_type_0::SimdFloatDiv               0      0.00%     63.81% # Type of FU issued
system.cpu.iq.FU_type_0::SimdFloatMisc              0      0.00%     63.81% # Type of FU issued
system.cpu.iq.FU_type_0::SimdFloatMult              0      0.00%     63.81% # Type of FU issued
system.cpu.iq.FU_type_0::SimdFloatMultAcc            0      0.00%     63.81% # Type of FU issued
system.cpu.iq.FU_type_0::SimdFloatSqrt              0      0.00%     63.81% # Type of FU issued
system.cpu.iq.FU_type_0::SimdReduceAdd              0      0.00%     63.81% # Type of FU issued
system.cpu.iq.FU_type_0::SimdReduceAlu              0      0.00%     63.81% # Type of FU issued
system.cpu.iq.FU_type_0::SimdReduceCmp              0      0.00%     63.81% # Type of FU issued
system.cpu.iq.FU_type_0::SimdFloatReduceAdd            0      0.00%     63.81% # Type of FU issued
system.cpu.iq.FU_type_0::SimdFloatReduceCmp            0      0.00%     63.81% # Type of FU issued
system.cpu.iq.FU_type_0::SimdAes                    0      0.00%     63.81% # Type of FU issued
system.cpu.iq.FU_type_0::SimdAesMix                 0      0.00%     63.81% # Type of FU issued
system.cpu.iq.FU_type_0::SimdSha1Hash               0      0.00%     63.81% # Type of FU issued
system.cpu.iq.FU_type_0::SimdSha1Hash2              0      0.00%     63.81% # Type of FU issued
system.cpu.iq.FU_type_0::SimdSha256Hash             0      0.00%     63.81% # Type of FU issued
system.cpu.iq.FU_type_0::SimdSha256Hash2            0      0.00%     63.81% # Type of FU issued
system.cpu.iq.FU_type_0::SimdShaSigma2              0      0.00%     63.81% # Type of FU issued
system.cpu.iq.FU_type_0::SimdShaSigma3              0      0.00%     63.81% # Type of FU issued
system.cpu.iq.FU_type_0::SimdPredAlu                0      0.00%     63.81% # Type of FU issued
system.cpu.iq.FU_type_0::MemRead              4033502     24.13%     87.93% # Type of FU issued
system.cpu.iq.FU_type_0::MemWrite             2016768     12.06%    100.00% # Type of FU issued
system.cpu.iq.FU_type_0::FloatMemRead              40      0.00%    100.00% # Type of FU issued
system.cpu.iq.FU_type_0::FloatMemWrite             32      0.00%    100.00% # Type of FU issued
system.cpu.iq.FU_type_0::IprAccess                  0      0.00%    100.00% # Type of FU issued
system.cpu.iq.FU_type_0::InstPrefetch               0      0.00%    100.00% # Type of FU issued
system.cpu.iq.FU_type_0::total               16716411                       # Type of FU issued
system.cpu.iq.fp_alu_accesses                     145                       # Number of floating point alu accesses
system.cpu.iq.fp_inst_queue_reads                 282                       # Number of floating instruction queue reads
system.cpu.iq.fp_inst_queue_wakeup_accesses          137                       # Number of floating instruction queue wakeup accesses
system.cpu.iq.fp_inst_queue_writes                151                       # Number of floating instruction queue writes
system.cpu.iq.fu_busy_cnt                        2525                       # FU busy when requested
system.cpu.iq.fu_busy_rate                   0.000151                       # FU busy rate (busy events/executed inst)
system.cpu.iq.fu_full::No_OpClass                   0      0.00%      0.00% # attempts to use FU when none available
system.cpu.iq.fu_full::IntAlu                    1555     61.58%     61.58% # attempts to use FU when none available
system.cpu.iq.fu_full::IntMult                      0      0.00%     61.58% # attempts to use FU when none available
system.cpu.iq.fu_full::IntDiv                       0      0.00%     61.58% # attempts to use FU when none available
system.cpu.iq.fu_full::FloatAdd                     0      0.00%     61.58% # attempts to use FU when none available
system.cpu.iq.fu_full::FloatCmp                     0      0.00%     61.58% # attempts to use FU when none available
system.cpu.iq.fu_full::FloatCvt                     0      0.00%     61.58% # attempts to use FU when none available
system.cpu.iq.fu_full::FloatMult                    0      0.00%     61.58% # attempts to use FU when none available
system.cpu.iq.fu_full::FloatMultAcc                 0      0.00%     61.58% # attempts to use FU when none available
system.cpu.iq.fu_full::FloatDiv                     0      0.00%     61.58% # attempts to use FU when none available
system.cpu.iq.fu_full::FloatMisc                    0      0.00%     61.58% # attempts to use FU when none available
system.cpu.iq.fu_full::FloatSqrt                    0      0.00%     61.58% # attempts to use FU when none available
system.cpu.iq.fu_full::SimdAdd                      0      0.00%     61.58% # attempts to use FU when none available
system.cpu.iq.fu_full::SimdAddAcc                   0      0.00%     61.58% # attempts to use FU when none available
system.cpu.iq.fu_full::SimdAlu                      0      0.00%     61.58% # attempts to use FU when none available
system.cpu.iq.fu_full::SimdCmp                      0      0.00%     61.58% # attempts to use FU when none available
system.cpu.iq.fu_full::SimdCvt                      0      0.00%     61.58% # attempts to use FU when none available
system.cpu.iq.fu_full::SimdMisc                     0      0.00%     61.58% # attempts to use FU when none available
system.cpu.iq.fu_full::SimdMult                     0      0.00%     61.58% # attempts to use FU when none available
system.cpu.iq.fu_full::SimdMultAcc                  0      0.00%     61.58% # attempts to use FU when none available
system.cpu.iq.fu_full::SimdShift                    0      0.00%     61.58% # attempts to use FU when none available
system.cpu.iq.fu_full::SimdShiftAcc                 0      0.00%     61.58% # attempts to use FU when none available
system.cpu.iq.fu_full::SimdDiv                      0      0.00%     61.58% # attempts to use FU when none available
system.cpu.iq.fu_full::SimdSqrt                     0      0.00%     61.58% # attempts to use FU when none available
system.cpu.iq.fu_full::SimdFloatAdd                 0      0.00%     61.58% # attempts to use FU when none available
system.cpu.iq.fu_full::SimdFloatAlu                 0      0.00%     61.58% # attempts to use FU when none available
system.cpu.iq.fu_full::SimdFloatCmp                 0      0.00%     61.58% # attempts to use FU when none available
system.cpu.iq.fu_full::SimdFloatCvt                 0      0.00%     61.58% # attempts to use FU when none available
system.cpu.iq.fu_full::SimdFloatDiv                 0      0.00%     61.58% # attempts to use FU when none available
system.cpu.iq.fu_full::SimdFloatMisc                0      0.00%     61.58% # attempts to use FU when none available
system.cpu.iq.fu_full::SimdFloatMult                0      0.00%     61.58% # attempts to use FU when none available
system.cpu.iq.fu_full::SimdFloatMultAcc             0      0.00%     61.58% # attempts to use FU when none available
system.cpu.iq.fu_full::SimdFloatSqrt                0      0.00%     61.58% # attempts to use FU when none available
system.cpu.iq.fu_full::SimdReduceAdd                0      0.00%     61.58% # attempts to use FU when none available
system.cpu.iq.fu_full::SimdReduceAlu                0      0.00%     61.58% # attempts to use FU when none available
system.cpu.iq.fu_full::SimdReduceCmp                0      0.00%     61.58% # attempts to use FU when none available
system.cpu.iq.fu_full::SimdFloatReduceAdd            0      0.00%     61.58% # attempts to use FU when none available
system.cpu.iq.fu_full::SimdFloatReduceCmp            0      0.00%     61.58% # attempts to use FU when none available
system.cpu.iq.fu_full::SimdAes                      0      0.00%     61.58% # attempts to use FU when none available
system.cpu.iq.fu_full::SimdAesMix                   0      0.00%     61.58% # attempts to use FU when none available
system.cpu.iq.fu_full::SimdSha1Hash                 0      0.00%     61.58% # attempts to use FU when none available
system.cpu.iq.fu_full::SimdSha1Hash2                0      0.00%     61.58% # attempts to use FU when none available
system.cpu.iq.fu_full::SimdSha256Hash               0      0.00%     61.58% # attempts to use FU when none available
system.cpu.iq.fu_full::SimdSha256Hash2              0      0.00%     61.58% # attempts to use FU when none available
system.cpu.iq.fu_full::SimdShaSigma2                0      0.00%     61.58% # attempts to use FU when none available
system.cpu.iq.fu_full::SimdShaSigma3                0      0.00%     61.58% # attempts to use FU when none available
system.cpu.iq.fu_full::SimdPredAlu                  0      0.00%     61.58% # attempts to use FU when none available
system.cpu.iq.fu_full::MemRead                    498     19.72%     81.31% # attempts to use FU when none available
system.cpu.iq.fu_full::MemWrite                   464     18.38%     99.68% # attempts to use FU when none available
system.cpu.iq.fu_full::FloatMemRead                 5      0.20%     99.88% # attempts to use FU when none available
system.cpu.iq.fu_full::FloatMemWrite                3      0.12%    100.00% # attempts to use FU when none available
system.cpu.iq.fu_full::IprAccess                    0      0.00%    100.00% # attempts to use FU when none available
system.cpu.iq.fu_full::InstPrefetch                 0      0.00%    100.00% # attempts to use FU when none available
system.cpu.iq.int_alu_accesses               16714436                       # Number of integer alu accesses
system.cpu.iq.int_inst_queue_reads          106510883                       # Number of integer instruction queue reads
system.cpu.iq.int_inst_queue_wakeup_accesses     16705150                       # Number of integer instruction queue wakeup accesses
system.cpu.iq.int_inst_queue_writes          16867118                       # Number of integer instruction queue writes
system.cpu.iq.iqInstsAdded                   16755476                       # Number of instructions added to the IQ (excludes non-spec)
system.cpu.iq.iqInstsIssued                  16716411                       # Number of instructions issued
system.cpu.iq.iqNonSpecInstsAdded                  71                       # Number of non-speculative instructions added to the IQ
system.cpu.iq.iqSquashedInstsExamined          111573                       # Number of squashed instructions iterated over during squash; mainly for profiling
system.cpu.iq.iqSquashedInstsIssued               582                       # Number of squashed instructions issued
system.cpu.iq.iqSquashedNonSpecRemoved             37                       # Number of squashed non-spec instructions that were removed
system.cpu.iq.iqSquashedOperandsExamined       172386                       # Number of squashed operands that are examined and possibly removed from graph
system.cpu.iq.issued_per_cycle::samples      73075236                       # Number of insts issued each cycle
system.cpu.iq.issued_per_cycle::mean         0.228756                       # Number of insts issued each cycle
system.cpu.iq.issued_per_cycle::stdev        0.618034                       # Number of insts issued each cycle
system.cpu.iq.issued_per_cycle::underflows            0      0.00%      0.00% # Number of insts issued each cycle
system.cpu.iq.issued_per_cycle::0            62447113     85.46%     85.46% # Number of insts issued each cycle
system.cpu.iq.issued_per_cycle::1             5828754      7.98%     93.43% # Number of insts issued each cycle
system.cpu.iq.issued_per_cycle::2             3575673      4.89%     98.33% # Number of insts issued each cycle
system.cpu.iq.issued_per_cycle::3             1196450      1.64%     99.96% # Number of insts issued each cycle
system.cpu.iq.issued_per_cycle::4                8603      0.01%     99.97% # Number of insts issued each cycle
system.cpu.iq.issued_per_cycle::5                7169      0.01%     99.98% # Number of insts issued each cycle
system.cpu.iq.issued_per_cycle::6                5907      0.01%     99.99% # Number of insts issued each cycle
system.cpu.iq.issued_per_cycle::7                3274      0.00%    100.00% # Number of insts issued each cycle
system.cpu.iq.issued_per_cycle::8                2293      0.00%    100.00% # Number of insts issued each cycle
system.cpu.iq.issued_per_cycle::overflows            0      0.00%    100.00% # Number of insts issued each cycle
system.cpu.iq.issued_per_cycle::min_value            0                       # Number of insts issued each cycle
system.cpu.iq.issued_per_cycle::max_value            8                       # Number of insts issued each cycle
system.cpu.iq.issued_per_cycle::total        73075236                       # Number of insts issued each cycle
system.cpu.iq.rate                           0.228665                       # Inst issue rate
system.cpu.iq.vec_alu_accesses                      0                       # Number of vector alu accesses
system.cpu.iq.vec_inst_queue_reads                  0                       # Number of vector instruction queue reads
system.cpu.iq.vec_inst_queue_wakeup_accesses            0                       # Number of vector instruction queue wakeup accesses
system.cpu.iq.vec_inst_queue_writes                 0                       # Number of vector instruction queue writes
system.cpu.itb.rdAccesses                           0                       # TLB accesses on read requests
system.cpu.itb.rdMisses                             0                       # TLB misses on read requests
system.cpu.itb.walker.pwrStateResidencyTicks::UNDEFINED  73104368000                       # Cumulative time (in ticks) in various power states
system.cpu.itb.wrAccesses                     1020957                       # TLB accesses on write requests
system.cpu.itb.wrMisses                           126                       # TLB misses on write requests
system.cpu.itb_walker_cache.avg_blocked_cycles::no_mshrs          nan                       # average number of cycles each access was blocked
system.cpu.itb_walker_cache.avg_blocked_cycles::no_targets          nan                       # average number of cycles each access was blocked
system.cpu.itb_walker_cache.blocked::no_mshrs            0                       # number of cycles access was blocked
system.cpu.itb_walker_cache.blocked::no_targets            0                       # number of cycles access was blocked
system.cpu.itb_walker_cache.blocked_cycles::no_mshrs            0                       # number of cycles access was blocked
system.cpu.itb_walker_cache.blocked_cycles::no_targets            0                       # number of cycles access was blocked
system.cpu.itb_walker_cache.pwrStateResidencyTicks::UNDEFINED  73104368000                       # Cumulative time (in ticks) in various power states
system.cpu.itb_walker_cache.replacements            0                       # number of replacements
system.cpu.itb_walker_cache.tags.avg_refs          nan                       # Average number of references to valid blocks.
system.cpu.itb_walker_cache.tags.data_accesses            0                       # Number of data accesses
system.cpu.itb_walker_cache.tags.pwrStateResidencyTicks::UNDEFINED  73104368000                       # Cumulative time (in ticks) in various power states
system.cpu.itb_walker_cache.tags.sampled_refs            0                       # Sample count of references to valid blocks.
system.cpu.itb_walker_cache.tags.tag_accesses            0                       # Number of tag accesses
system.cpu.itb_walker_cache.tags.tagsinuse            0                       # Cycle average of tags in use
system.cpu.itb_walker_cache.tags.total_refs            0                       # Total number of references to valid blocks.
system.cpu.itb_walker_cache.tags.warmup_cycle            0                       # Cycle when the warmup percentage was hit.
system.cpu.memDep0.conflictingLoads           3501415                       # Number of conflicting loads.
system.cpu.memDep0.conflictingStores          2000605                       # Number of conflicting stores.
system.cpu.memDep0.insertedLoads              4038503                       # Number of loads inserted to the mem dependence unit.
system.cpu.memDep0.insertedStores             2019405                       # Number of stores inserted to the mem dependence unit.
system.cpu.misc_regfile_reads                 7093666                       # number of misc regfile reads
system.cpu.misc_regfile_writes                      9                       # number of misc regfile writes
system.cpu.numCycles                         73104369                       # number of cpu cycles simulated
system.cpu.numWorkItemsCompleted                    0                       # number of work items this cpu completed
system.cpu.numWorkItemsStarted                      0                       # number of work items this cpu started
system.cpu.pwrStateResidencyTicks::ON     73104368000                       # Cumulative time (in ticks) in various power states
system.cpu.rename.BlockCycles                63452073                       # Number of cycles rename is blocking
system.cpu.rename.CommittedMaps              25178036                       # Number of HB maps that are committed
system.cpu.rename.IQFullEvents                6754811                       # Number of times rename has blocked due to IQ full
system.cpu.rename.IdleCycles                  1289902                       # Number of cycles rename is idle
system.cpu.rename.LQFullEvents                    588                       # Number of times rename has blocked due to LQ full
system.cpu.rename.ROBFullEvents                   952                       # Number of times rename has blocked due to ROB full
system.cpu.rename.RenameLookups              40239627                       # Number of register rename lookups that rename has made
system.cpu.rename.RenamedInsts               16780342                       # Number of instructions processed by rename
system.cpu.rename.RenamedOperands            25339600                       # Number of destination operands rename has renamed
system.cpu.rename.RunCycles                   1476730                       # Number of cycles rename is running
system.cpu.rename.SQFullEvents                  33071                       # Number of times rename has blocked due to SQ full
system.cpu.rename.SquashCycles                   3516                       # Number of cycles rename is squashing
system.cpu.rename.UnblockCycles               6851200                       # Number of cycles rename is unblocking
system.cpu.rename.UndoneMaps                   161564                       # Number of HB maps that are undone due to squashing
system.cpu.rename.fp_rename_lookups               127                       # Number of floating rename lookups
system.cpu.rename.int_rename_lookups         27943201                       # Number of integer rename lookups
system.cpu.rename.serializeStallCycles           1815                       # count of cycles rename stalled for serializing inst
system.cpu.rename.serializingInsts                 87                       # count of serializing insts renamed
system.cpu.rename.skidInsts                  12462887                       # count of insts added to the skid buffer
system.cpu.rename.tempSerializingInsts             58                       # count of temporary serializing insts renamed
system.cpu.rob.rob_reads                     89807763                       # The number of ROB reads
system.cpu.rob.rob_writes                    33528877                       # The number of ROB writes
system.cpu.timesIdled                             467                       # Number of times that the entire CPU went into an idle state and unscheduled itself
system.cpu.workload.numSyscalls                    25                       # Number of system calls
system.cpu_clk_domain.clock                      1000                       # Clock period in ticks
system.cpu_voltage_domain.voltage                   1                       # Voltage in Volts
system.l2.CleanEvict_mshr_miss_rate::.writebacks          inf                       # mshr miss rate for CleanEvict accesses
system.l2.CleanEvict_mshr_miss_rate::total          inf                       # mshr miss rate for CleanEvict accesses
system.l2.CleanEvict_mshr_misses::.writebacks            1                       # number of CleanEvict MSHR misses
system.l2.CleanEvict_mshr_misses::total             1                       # number of CleanEvict MSHR misses
system.l2.HardPFReq_avg_mshr_miss_latency::.l2.prefetcher 77474.550000                       # average HardPFReq mshr miss latency
system.l2.HardPFReq_avg_mshr_miss_latency::total 77474.550000                       # average HardPFReq mshr miss latency
system.l2.HardPFReq_mshr_miss_latency::.l2.prefetcher      3098982                       # number of HardPFReq MSHR miss cycles
system.l2.HardPFReq_mshr_miss_latency::total      3098982                       # number of HardPFReq MSHR miss cycles
system.l2.HardPFReq_mshr_miss_rate::.l2.prefetcher          inf                       # mshr miss rate for HardPFReq accesses
system.l2.HardPFReq_mshr_miss_rate::total          inf                       # mshr miss rate for HardPFReq accesses
system.l2.HardPFReq_mshr_misses::.l2.prefetcher           40                       # number of HardPFReq MSHR misses
system.l2.HardPFReq_mshr_misses::total             40                       # number of HardPFReq MSHR misses
system.l2.ReadCleanReq_accesses::.cpu.inst          905                       # number of ReadCleanReq accesses(hits+misses)
system.l2.ReadCleanReq_accesses::total            905                       # number of ReadCleanReq accesses(hits+misses)
system.l2.ReadCleanReq_avg_miss_latency::.cpu.inst 103275.815217                       # average ReadCleanReq miss latency
system.l2.ReadCleanReq_avg_miss_latency::total 103275.815217                       # average ReadCleanReq miss latency
system.l2.ReadCleanReq_avg_mshr_miss_latency::.cpu.inst 83302.989130                       # average ReadCleanReq mshr miss latency
system.l2.ReadCleanReq_avg_mshr_miss_latency::total 83302.989130                       # average ReadCleanReq mshr miss latency
system.l2.ReadCleanReq_hits::.cpu.inst            169                       # number of ReadCleanReq hits
system.l2.ReadCleanReq_hits::total                169                       # number of ReadCleanReq hits
system.l2.ReadCleanReq_miss_latency::.cpu.inst     76011000                       # number of ReadCleanReq miss cycles
system.l2.ReadCleanReq_miss_latency::total     76011000                       # number of ReadCleanReq miss cycles
system.l2.ReadCleanReq_miss_rate::.cpu.inst     0.813260                       # miss rate for ReadCleanReq accesses
system.l2.ReadCleanReq_miss_rate::total      0.813260                       # miss rate for ReadCleanReq accesses
system.l2.ReadCleanReq_misses::.cpu.inst          736                       # number of ReadCleanReq misses
system.l2.ReadCleanReq_misses::total              736                       # number of ReadCleanReq misses
system.l2.ReadCleanReq_mshr_miss_latency::.cpu.inst     61311000                       # number of ReadCleanReq MSHR miss cycles
system.l2.ReadCleanReq_mshr_miss_latency::total     61311000                       # number of ReadCleanReq MSHR miss cycles
system.l2.ReadCleanReq_mshr_miss_rate::.cpu.inst     0.813260                       # mshr miss rate for ReadCleanReq accesses
system.l2.ReadCleanReq_mshr_miss_rate::total     0.813260                       # mshr miss rate for ReadCleanReq accesses
system.l2.ReadCleanReq_mshr_misses::.cpu.inst          736                       # number of ReadCleanReq MSHR misses
system.l2.ReadCleanReq_mshr_misses::total          736                       # number of ReadCleanReq MSHR misses
system.l2.ReadExReq_accesses::.cpu.data           444                       # number of ReadExReq accesses(hits+misses)
system.l2.ReadExReq_accesses::total               444                       # number of ReadExReq accesses(hits+misses)
system.l2.ReadExReq_avg_miss_latency::.cpu.data 105418.013857                       # average ReadExReq miss latency
system.l2.ReadExReq_avg_miss_latency::total 105418.013857                       # average ReadExReq miss latency
system.l2.ReadExReq_avg_mshr_miss_latency::.cpu.data 85497.685185                       # average ReadExReq mshr miss latency
system.l2.ReadExReq_avg_mshr_miss_latency::total 85497.685185                       # average ReadExReq mshr miss latency
system.l2.ReadExReq_hits::.cpu.data                11                       # number of ReadExReq hits
system.l2.ReadExReq_hits::total                    11                       # number of ReadExReq hits
system.l2.ReadExReq_miss_latency::.cpu.data     45646000                       # number of ReadExReq miss cycles
system.l2.ReadExReq_miss_latency::total      45646000                       # number of ReadExReq miss cycles
system.l2.ReadExReq_miss_rate::.cpu.data     0.975225                       # miss rate for ReadExReq accesses
system.l2.ReadExReq_miss_rate::total         0.975225                       # miss rate for ReadExReq accesses
system.l2.ReadExReq_misses::.cpu.data             433                       # number of ReadExReq misses
system.l2.ReadExReq_misses::total                 433                       # number of ReadExReq misses
system.l2.ReadExReq_mshr_hits::.cpu.data            1                       # number of ReadExReq MSHR hits
system.l2.ReadExReq_mshr_hits::total                1                       # number of ReadExReq MSHR hits
system.l2.ReadExReq_mshr_miss_latency::.cpu.data     36935000                       # number of ReadExReq MSHR miss cycles
system.l2.ReadExReq_mshr_miss_latency::total     36935000                       # number of ReadExReq MSHR miss cycles
system.l2.ReadExReq_mshr_miss_rate::.cpu.data     0.972973                       # mshr miss rate for ReadExReq accesses
system.l2.ReadExReq_mshr_miss_rate::total     0.972973                       # mshr miss rate for ReadExReq accesses
system.l2.ReadExReq_mshr_misses::.cpu.data          432                       # number of ReadExReq MSHR misses
system.l2.ReadExReq_mshr_misses::total            432                       # number of ReadExReq MSHR misses
system.l2.ReadSharedReq_accesses::.cpu.data       493425                       # number of ReadSharedReq accesses(hits+misses)
[...]
system.mem_ctrls.wrQLenPdf::26                     28                       # What write queue length does an incoming req see
system.mem_ctrls.wrQLenPdf::27                     28                       # What write queue length does an incoming req see
system.mem_ctrls.wrQLenPdf::28                     28                       # What write queue length does an incoming req see
system.mem_ctrls.wrQLenPdf::29                     28                       # What write queue length does an incoming req see
system.mem_ctrls.wrQLenPdf::30                     28                       # What write queue length does an incoming req see
system.mem_ctrls.wrQLenPdf::31                     28                       # What write queue length does an incoming req see
system.mem_ctrls.wrQLenPdf::32                     28                       # What write queue length does an incoming req see
system.mem_ctrls.wrQLenPdf::33                      0                       # What write queue length does an incoming req see
system.mem_ctrls.wrQLenPdf::34                      0                       # What write queue length does an incoming req see
system.mem_ctrls.wrQLenPdf::35                      0                       # What write queue length does an incoming req see
system.mem_ctrls.wrQLenPdf::36                      0                       # What write queue length does an incoming req see
system.mem_ctrls.wrQLenPdf::37                      0                       # What write queue length does an incoming req see
system.mem_ctrls.wrQLenPdf::38                      0                       # What write queue length does an incoming req see
system.mem_ctrls.wrQLenPdf::39                      0                       # What write queue length does an incoming req see
system.mem_ctrls.wrQLenPdf::40                      0                       # What write queue length does an incoming req see
system.mem_ctrls.wrQLenPdf::41                      0                       # What write queue length does an incoming req see
system.mem_ctrls.wrQLenPdf::42                      0                       # What write queue length does an incoming req see
system.mem_ctrls.wrQLenPdf::43                      0                       # What write queue length does an incoming req see
system.mem_ctrls.wrQLenPdf::44                      0                       # What write queue length does an incoming req see
system.mem_ctrls.wrQLenPdf::45                      0                       # What write queue length does an incoming req see
system.mem_ctrls.wrQLenPdf::46                      0                       # What write queue length does an incoming req see
system.mem_ctrls.wrQLenPdf::47                      0                       # What write queue length does an incoming req see
system.mem_ctrls.wrQLenPdf::48                      0                       # What write queue length does an incoming req see
system.mem_ctrls.wrQLenPdf::49                      0                       # What write queue length does an incoming req see
system.mem_ctrls.wrQLenPdf::50                      0                       # What write queue length does an incoming req see
system.mem_ctrls.wrQLenPdf::51                      0                       # What write queue length does an incoming req see
system.mem_ctrls.wrQLenPdf::52                      0                       # What write queue length does an incoming req see
system.mem_ctrls.wrQLenPdf::53                      0                       # What write queue length does an incoming req see
system.mem_ctrls.wrQLenPdf::54                      0                       # What write queue length does an incoming req see
system.mem_ctrls.wrQLenPdf::55                      0                       # What write queue length does an incoming req see
system.mem_ctrls.wrQLenPdf::56                      0                       # What write queue length does an incoming req see
system.mem_ctrls.wrQLenPdf::57                      0                       # What write queue length does an incoming req see
system.mem_ctrls.wrQLenPdf::58                      0                       # What write queue length does an incoming req see
system.mem_ctrls.wrQLenPdf::59                      0                       # What write queue length does an incoming req see
system.mem_ctrls.wrQLenPdf::60                      0                       # What write queue length does an incoming req see
system.mem_ctrls.wrQLenPdf::61                      0                       # What write queue length does an incoming req see
system.mem_ctrls.wrQLenPdf::62                      0                       # What write queue length does an incoming req see
system.mem_ctrls.wrQLenPdf::63                      0                       # What write queue length does an incoming req see
system.mem_ctrls.writeBursts                      480                       # Number of DRAM write bursts, including those merged in the write queue
system.mem_ctrls.writePktSize::0                    0                       # Write request sizes (log2)
system.mem_ctrls.writePktSize::1                    0                       # Write request sizes (log2)
system.mem_ctrls.writePktSize::2                    0                       # Write request sizes (log2)
system.mem_ctrls.writePktSize::3                    0                       # Write request sizes (log2)
system.mem_ctrls.writePktSize::4                    0                       # Write request sizes (log2)
system.mem_ctrls.writePktSize::5                    0                       # Write request sizes (log2)
system.mem_ctrls.writePktSize::6                  480                       # Write request sizes (log2)
system.mem_ctrls.writeReqs                        480                       # Number of write requests accepted
system.mem_ctrls.writeRowHitRate                75.42                       # Row buffer hit rate for writes
system.mem_ctrls.writeRowHits                     362                       # Number of row buffer hits during writes
system.mem_ctrls_0.actBackEnergy           6075477240                       # Energy for active background per rank (pJ)
system.mem_ctrls_0.actEnergy               1611162420                       # Energy for activate commands per rank (pJ)
system.mem_ctrls_0.actPowerDownEnergy     26517733800                       # Energy for active power-down per rank (pJ)
system.mem_ctrls_0.averagePower            590.056279                       # Core power per rank (mW)
system.mem_ctrls_0.memoryStateTime::IDLE     52335000                       # Time in different power states
system.mem_ctrls_0.memoryStateTime::REF    2440880000                       # Time in different power states
system.mem_ctrls_0.memoryStateTime::SREF            0                       # Time in different power states
system.mem_ctrls_0.memoryStateTime::PRE_PDN   1295025500                       # Time in different power states
system.mem_ctrls_0.memoryStateTime::ACT   11156330250                       # Time in different power states
system.mem_ctrls_0.memoryStateTime::ACT_PDN  58159797250                       # Time in different power states
system.mem_ctrls_0.preBackEnergy            127629600                       # Energy for precharge background per rank (pJ)
system.mem_ctrls_0.preEnergy                856322775                       # Energy for precharge commands per rank (pJ)
system.mem_ctrls_0.prePowerDownEnergy       497533440                       # Energy for precharge power-down per rank (pJ)
system.mem_ctrls_0.readEnergy              1677435900                       # Energy for read commands per rank (pJ)
system.mem_ctrls_0.refreshEnergy         5770240320.000001                       # Energy for refresh commands per rank (pJ)
system.mem_ctrls_0.selfRefreshEnergy                0                       # Energy for self refresh per rank (pJ)
system.mem_ctrls_0.totalEnergy            43135691355                       # Total energy per rank (pJ)
system.mem_ctrls_0.totalIdleTime          59454691500                       # Total Idle time Per DRAM Rank
system.mem_ctrls_0.writeEnergy                2155860                       # Energy for write commands per rank (pJ)
system.mem_ctrls_1.actBackEnergy           6071615490                       # Energy for active background per rank (pJ)
system.mem_ctrls_1.actEnergy               1608691980                       # Energy for activate commands per rank (pJ)
system.mem_ctrls_1.actPowerDownEnergy     26501905470                       # Energy for active power-down per rank (pJ)
system.mem_ctrls_1.averagePower            589.938292                       # Core power per rank (mW)
system.mem_ctrls_1.memoryStateTime::IDLE     53202000                       # Time in different power states
system.mem_ctrls_1.memoryStateTime::REF    2440880000                       # Time in different power states
system.mem_ctrls_1.memoryStateTime::SREF            0                       # Time in different power states
system.mem_ctrls_1.memoryStateTime::PRE_PDN   1337382000                       # Time in different power states
system.mem_ctrls_1.memoryStateTime::ACT   11147839250                       # Time in different power states
system.mem_ctrls_1.memoryStateTime::ACT_PDN  58125064750                       # Time in different power states
system.mem_ctrls_1.preBackEnergy            127949760                       # Energy for precharge background per rank (pJ)
system.mem_ctrls_1.preEnergy                855013500                       # Energy for precharge commands per rank (pJ)
system.mem_ctrls_1.prePowerDownEnergy       513794400                       # Energy for precharge power-down per rank (pJ)
system.mem_ctrls_1.readEnergy              1677635820                       # Energy for read commands per rank (pJ)
system.mem_ctrls_1.refreshEnergy         5770240320.000001                       # Energy for refresh commands per rank (pJ)
system.mem_ctrls_1.selfRefreshEnergy                0                       # Energy for self refresh per rank (pJ)
system.mem_ctrls_1.totalEnergy            43127065980                       # Total energy per rank (pJ)
system.mem_ctrls_1.totalIdleTime          59462347250                       # Total Idle time Per DRAM Rank
system.mem_ctrls_1.writeEnergy                 219240                       # Energy for write commands per rank (pJ)
system.membus.pkt_count_system.l2.mem_side::system.mem_ctrls.port      1405403                       # Packet count per connected master and slave (bytes)
system.membus.pkt_count_system.l2.mem_side::total      1405403                       # Packet count per connected master and slave (bytes)
system.membus.pkt_count::total                1405403                       # Packet count per connected master and slave (bytes)
system.membus.pkt_size_system.l2.mem_side::system.mem_ctrls.port     30104448                       # Cumulative packet size per connected master and slave (bytes)
system.membus.pkt_size_system.l2.mem_side::total     30104448                       # Cumulative packet size per connected master and slave (bytes)
system.membus.pkt_size::total                30104448                       # Cumulative packet size per connected master and slave (bytes)
system.membus.pwrStateResidencyTicks::UNDEFINED  73104368000                       # Cumulative time (in ticks) in various power states
system.membus.reqLayer2.occupancy           937421999                       # Layer occupancy (ticks)
system.membus.reqLayer2.utilization               1.3                       # Layer utilization (%)
system.membus.respLayer1.occupancy         2654835501                       # Layer occupancy (ticks)
system.membus.respLayer1.utilization              3.6                       # Layer utilization (%)
system.membus.snoopTraffic                          0                       # Total snoop traffic (bytes)
system.membus.snoop_fanout::samples            469902                       # Request fanout histogram
system.membus.snoop_fanout::mean                    0                       # Request fanout histogram
system.membus.snoop_fanout::stdev                   0                       # Request fanout histogram
system.membus.snoop_fanout::underflows              0      0.00%      0.00% # Request fanout histogram
system.membus.snoop_fanout::0                  469902    100.00%    100.00% # Request fanout histogram
system.membus.snoop_fanout::1                       0      0.00%    100.00% # Request fanout histogram
system.membus.snoop_fanout::overflows               0      0.00%    100.00% # Request fanout histogram
system.membus.snoop_fanout::min_value               0                       # Request fanout histogram
system.membus.snoop_fanout::max_value               0                       # Request fanout histogram
system.membus.snoop_fanout::total              469902                       # Request fanout histogram
system.membus.snoop_filter.hit_multi_requests            0                       # Number of requests hitting in the snoop filter with multiple (>1) holders of the requested data.
system.membus.snoop_filter.hit_multi_snoops            0                       # Number of snoops hitting in the snoop filter with multiple (>1) holders of the requested data.
system.membus.snoop_filter.hit_single_requests       465599                       # Number of requests hitting in the snoop filter with a single holder of the requested data.
system.membus.snoop_filter.hit_single_snoops            0                       # Number of snoops hitting in the snoop filter with a single holder of the requested data.
system.membus.snoop_filter.tot_requests        935501                       # Total number of requests made to the snoop filter.
system.membus.snoop_filter.tot_snoops               0                       # Total number of snoops made to the snoop filter.
system.membus.snoops                                0                       # Total snoops (count)
system.membus.trans_dist::ReadResp             469470                       # Transaction distribution
system.membus.trans_dist::WritebackDirty          480                       # Transaction distribution
system.membus.trans_dist::CleanEvict           465119                       # Transaction distribution
system.membus.trans_dist::ReadExReq               432                       # Transaction distribution
system.membus.trans_dist::ReadExResp              432                       # Transaction distribution
system.membus.trans_dist::ReadSharedReq        469470                       # Transaction distribution
system.tol2bus.pkt_count_system.cpu.icache.mem_side::system.l2.cpu_side         2457                       # Packet count per connected master and slave (bytes)
system.tol2bus.pkt_count_system.cpu.dcache.mem_side::system.l2.cpu_side      1480583                       # Packet count per connected master and slave (bytes)
system.tol2bus.pkt_count::total               1483040                       # Packet count per connected master and slave (bytes)
system.tol2bus.pkt_size_system.cpu.icache.mem_side::system.l2.cpu_side        99328                       # Cumulative packet size per connected master and slave (bytes)
system.tol2bus.pkt_size_system.cpu.dcache.mem_side::system.l2.cpu_side     31642624                       # Cumulative packet size per connected master and slave (bytes)
system.tol2bus.pkt_size::total               31741952                       # Cumulative packet size per connected master and slave (bytes)
system.tol2bus.pwrStateResidencyTicks::UNDEFINED  73104368000                       # Cumulative time (in ticks) in various power states
system.tol2bus.reqLayer0.occupancy          990657000                       # Layer occupancy (ticks)
system.tol2bus.reqLayer0.utilization              1.4                       # Layer utilization (%)
system.tol2bus.respLayer0.occupancy           2712999                       # Layer occupancy (ticks)
system.tol2bus.respLayer0.utilization             0.0                       # Layer utilization (%)
system.tol2bus.respLayer1.occupancy        1481607000                       # Layer occupancy (ticks)
system.tol2bus.respLayer1.utilization             2.0                       # Layer utilization (%)
system.tol2bus.snoopTraffic                     30720                       # Total snoop traffic (bytes)
system.tol2bus.snoop_fanout::samples           960694                       # Request fanout histogram
system.tol2bus.snoop_fanout::mean            0.000285                       # Request fanout histogram
system.tol2bus.snoop_fanout::stdev           0.016886                       # Request fanout histogram
system.tol2bus.snoop_fanout::underflows             0      0.00%      0.00% # Request fanout histogram
system.tol2bus.snoop_fanout::0                 960420     99.97%     99.97% # Request fanout histogram
system.tol2bus.snoop_fanout::1                    274      0.03%    100.00% # Request fanout histogram
system.tol2bus.snoop_fanout::2                      0      0.00%    100.00% # Request fanout histogram
system.tol2bus.snoop_fanout::3                      0      0.00%    100.00% # Request fanout histogram
system.tol2bus.snoop_fanout::4                      0      0.00%    100.00% # Request fanout histogram
system.tol2bus.snoop_fanout::overflows              0      0.00%    100.00% # Request fanout histogram
system.tol2bus.snoop_fanout::min_value              0                       # Request fanout histogram
system.tol2bus.snoop_fanout::max_value              1                       # Request fanout histogram
system.tol2bus.snoop_fanout::total             960694                       # Request fanout histogram
system.tol2bus.snoop_filter.hit_multi_requests           12                       # Number of requests hitting in the snoop filter with multiple (>1) holders of the requested data.
system.tol2bus.snoop_filter.hit_multi_snoops            0                       # Number of snoops hitting in the snoop filter with multiple (>1) holders of the requested data.
system.tol2bus.snoop_filter.hit_single_requests       493493                       # Number of requests hitting in the snoop filter with a single holder of the requested data.
system.tol2bus.snoop_filter.hit_single_snoops          262                       # Number of snoops hitting in the snoop filter with a single holder of the requested data.
system.tol2bus.snoop_filter.tot_requests       988267                       # Total number of requests made to the snoop filter.
system.tol2bus.snoop_filter.tot_snoops            262                       # Total number of snoops made to the snoop filter.
system.tol2bus.snoops                          465920                       # Total snoops (count)
system.tol2bus.trans_dist::ReadResp            494329                       # Transaction distribution
system.tol2bus.trans_dist::WritebackDirty         1027                       # Transaction distribution
system.tol2bus.trans_dist::WritebackClean          648                       # Transaction distribution
system.tol2bus.trans_dist::CleanEvict          957678                       # Transaction distribution
system.tol2bus.trans_dist::HardPFReq               60                       # Transaction distribution
system.tol2bus.trans_dist::ReadExReq              444                       # Transaction distribution
system.tol2bus.trans_dist::ReadExResp             444                       # Transaction distribution
system.tol2bus.trans_dist::ReadCleanReq           905                       # Transaction distribution
system.tol2bus.trans_dist::ReadSharedReq       493425                       # Transaction distribution
system.voltage_domain.voltage                       1                       # Voltage in Volts

---------- End Simulation Statistics   ----------
