
---------- Begin Simulation Statistics ----------
final_tick                                73088964000                       # Number of ticks from beginning of simulation (restored from checkpoints and never reset)
host_inst_rate                                  83010                       # Simulator instruction rate (inst/s)
host_mem_usage                                 806592                       # Number of bytes of host memory used
host_op_rate                                   152192                       # Simulator op (including micro ops) rate (op/s)
host_seconds                                   109.36                       # Real time elapsed on the host
host_tick_rate                              668322239                       # Simulator tick rate (ticks/s)
sim_freq                                 1000000000000                       # Frequency of simulated ticks
sim_insts                                     9078150                       # Number of instructions simulated
sim_ops                                      16643973                       # Number of ops (including micro ops) simulated
sim_seconds                                  0.073089                       # Number of seconds simulated
sim_ticks                                 73088964000                       # Number of ticks simulated
system.clk_domain.clock                          1000                       # Clock period in ticks
system.cpu.apic_clk_domain.clock                16000                       # Clock period in ticks
system.cpu.branchPred.BTBCorrect                    0                       # Number of correct BTB predictions (this stat may not work properly.
system.cpu.branchPred.BTBHitPct              0.000000                       # BTB Hit Percentage
system.cpu.branchPred.BTBHits                       0                       # Number of BTB hits
system.cpu.branchPred.BTBLookups               532112                       # Number of BTB lookups
system.cpu.branchPred.RASInCorrect                379                       # Number of incorrect RAS predictions.
system.cpu.branchPred.condIncorrect              2838                       # Number of conditional branches incorrect
system.cpu.branchPred.condPredicted            535363                       # Number of conditional branches predicted
system.cpu.branchPred.indirectHits             513078                       # Number of indirect target hits.
system.cpu.branchPred.indirectLookups          532112                       # Number of indirect predictor lookups.
system.cpu.branchPred.indirectMisses            19034                       # Number of indirect misses.
system.cpu.branchPred.lookups                  535363                       # Number of BP lookups
system.cpu.branchPred.usedRAS                    1582                       # Number of times the RAS was used to get a target.
system.cpu.branchPredindirectMispredicted         1721                       # Number of mispredicted indirect branches.
system.cpu.cc_regfile_reads                   5108102                       # number of cc regfile reads
system.cpu.cc_regfile_writes                 11072748                       # number of cc regfile writes
system.cpu.commit.amos                              0                       # Number of atomic instructions committed
system.cpu.commit.branchMispredicts              2867                       # The number of times a branch was mispredicted
system.cpu.commit.branches                     516932                       # Number of branches committed
system.cpu.commit.bw_lim_events                  5727                       # number cycles where commit BW limit reached
system.cpu.commit.commitNonSpecStalls              34                       # The number of times commit has been forced to stall to communicate backwards
system.cpu.commit.commitSquashedInsts          100236                       # The number of squashed insts skipped by commit
system.cpu.commit.committedInsts              9078150                       # Number of instructions committed
system.cpu.commit.committedOps               16643973                       # Number of ops (including micro ops) committed
system.cpu.commit.committed_per_cycle::samples     73047529                       # Number of insts commited each cycle
system.cpu.commit.committed_per_cycle::mean     0.227851                       # Number of insts commited each cycle
system.cpu.commit.committed_per_cycle::stdev     0.715798                       # Number of insts commited each cycle
system.cpu.commit.committed_per_cycle::underflows            0      0.00%      0.00% # Number of insts commited each cycle
system.cpu.commit.committed_per_cycle::0     63504186     86.94%     86.94% # Number of insts commited each cycle
system.cpu.commit.committed_per_cycle::1      5513465      7.55%     94.48% # Number of insts commited each cycle
system.cpu.commit.committed_per_cycle::2      2505453      3.43%     97.91% # Number of insts commited each cycle
system.cpu.commit.committed_per_cycle::3       510009      0.70%     98.61% # Number of insts commited each cycle
system.cpu.commit.committed_per_cycle::4       502808      0.69%     99.30% # Number of insts commited each cycle
system.cpu.commit.committed_per_cycle::5       503382      0.69%     99.99% # Number of insts commited each cycle
system.cpu.commit.committed_per_cycle::6         1876      0.00%     99.99% # Number of insts commited each cycle
system.cpu.commit.committed_per_cycle::7          623      0.00%     99.99% # Number of insts commited each cycle
system.cpu.commit.committed_per_cycle::8         5727      0.01%    100.00% # Number of insts commited each cycle
system.cpu.commit.committed_per_cycle::overflows            0      0.00%    100.00% # Number of insts commited each cycle
system.cpu.commit.committed_per_cycle::min_value            0                       # Number of insts commited each cycle
system.cpu.commit.committed_per_cycle::max_value            8                       # Number of insts commited each cycle
system.cpu.commit.committed_per_cycle::total     73047529                       # Number of insts commited each cycle
system.cpu.commit.fp_insts                        123                       # Number of committed floating point instructions.
system.cpu.commit.function_calls                  634                       # Number of function calls committed.
system.cpu.commit.int_insts                  16640875                       # Number of committed integer instructions.
system.cpu.commit.loads                       4021111                       # Number of loads committed
system.cpu.commit.membars                           0                       # Number of memory barriers committed
system.cpu.commit.op_class_0::No_OpClass         3068      0.02%      0.02% # Class of committed instruction
system.cpu.commit.op_class_0::IntAlu         10606816     63.73%     63.75% # Class of committed instruction
system.cpu.commit.op_class_0::IntMult              17      0.00%     63.75% # Class of committed instruction
system.cpu.commit.op_class_0::IntDiv             1260      0.01%     63.75% # Class of committed instruction
system.cpu.commit.op_class_0::FloatAdd              9      0.00%     63.75% # Class of committed instruction
system.cpu.commit.op_class_0::FloatCmp              0      0.00%     63.75% # Class of committed instruction
system.cpu.commit.op_class_0::FloatCvt             16      0.00%     63.75% # Class of committed instruction
system.cpu.commit.op_class_0::FloatMult             0      0.00%     63.75% # Class of committed instruction
system.cpu.commit.op_class_0::FloatMultAcc            0      0.00%     63.75% # Class of committed instruction
system.cpu.commit.op_class_0::FloatDiv              0      0.00%     63.75% # Class of committed instruction
system.cpu.commit.op_class_0::FloatMisc             0      0.00%     63.75% # Class of committed instruction
system.cpu.commit.op_class_0::FloatSqrt             0      0.00%     63.75% # Class of committed instruction
system.cpu.commit.op_class_0::SimdAdd               0      0.00%     63.75% # Class of committed instruction
system.cpu.commit.op_class_0::SimdAddAcc            0      0.00%     63.75% # Class of committed instruction
system.cpu.commit.op_class_0::SimdAlu               2      0.00%     63.75% # Class of committed instruction
system.cpu.commit.op_class_0::SimdCmp               0      0.00%     63.75% # Class of committed instruction
system.cpu.commit.op_class_0::SimdCvt               8      0.00%     63.75% # Class of committed instruction
system.cpu.commit.op_class_0::SimdMisc             15      0.00%     63.75% # Class of committed instruction
system.cpu.commit.op_class_0::SimdMult              0      0.00%     63.75% # Class of committed instruction
system.cpu.commit.op_class_0::SimdMultAcc            0      0.00%     63.75% # Class of committed instruction
system.cpu.commit.op_class_0::SimdShift             0      0.00%     63.75% # Class of committed instruction
system.cpu.commit.op_class_0::SimdShiftAcc            0      0.00%     63.75% # Class of committed instruction
system.cpu.commit.op_class_0::SimdDiv               0      0.00%     63.75% # Class of committed instruction
system.cpu.commit.op_class_0::SimdSqrt              0      0.00%     63.75% # Class of committed instruction
system.cpu.commit.op_class_0::SimdFloatAdd            0      0.00%     63.75% # Class of committed instruction
system.cpu.commit.op_class_0::SimdFloatAlu            0      0.00%     63.75% # Class of committed instruction
system.cpu.commit.op_class_0::SimdFloatCmp            0      0.00%     63.75% # Class of committed instruction
system.cpu.commit.op_class_0::SimdFloatCvt            0      0.00%     63.75% # Class of committed instruction
system.cpu.commit.op_class_0::SimdFloatDiv            0      0.00%     63.75% # Class of committed instruction
system.cpu.commit.op_class_0::SimdFloatMisc            0      0.00%     63.75% # Class of committed instruction
system.cpu.commit.op_class_0::SimdFloatMult            0      0.00%     63.75% # Class of committed instruction
system.cpu.commit.op_class_0::SimdFloatMultAcc            0      0.00%     63.75% # Class of committed instruction
system.cpu.commit.op_class_0::SimdFloatSqrt            0      0.00%     63.75% # Class of committed instruction
system.cpu.commit.op_class_0::SimdReduceAdd            0      0.00%     63.75% # Class of committed instruction
system.cpu.commit.op_class_0::SimdReduceAlu            0      0.00%     63.75% # Class of committed instruction
system.cpu.commit.op_class_0::SimdReduceCmp            0      0.00%     63.75% # Class of committed instruction
system.cpu.commit.op_class_0::SimdFloatReduceAdd            0      0.00%     63.75% # Class of committed instruction
system.cpu.commit.op_class_0::SimdFloatReduceCmp            0      0.00%     63.75% # Class of committed instruction
system.cpu.commit.op_class_0::SimdAes               0      0.00%     63.75% # Class of committed instruction
system.cpu.commit.op_class_0::SimdAesMix            0      0.00%     63.75% # Class of committed instruction
system.cpu.commit.op_class_0::SimdSha1Hash            0      0.00%     63.75% # Class of committed instruction
system.cpu.commit.op_class_0::SimdSha1Hash2            0      0.00%     63.75% # Class of committed instruction
system.cpu.commit.op_class_0::SimdSha256Hash            0      0.00%     63.75% # Class of committed instruction
system.cpu.commit.op_class_0::SimdSha256Hash2            0      0.00%     63.75% # Class of committed instruction
system.cpu.commit.op_class_0::SimdShaSigma2            0      0.00%     63.75% # Class of committed instruction
system.cpu.commit.op_class_0::SimdShaSigma3            0      0.00%     63.75% # Class of committed instruction
system.cpu.commit.op_class_0::SimdPredAlu            0      0.00%     63.75% # Class of committed instruction
system.cpu.commit.op_class_0::MemRead         4021075     24.16%     87.91% # Class of committed instruction
system.cpu.commit.op_class_0::MemWrite        2011619     12.09%    100.00% # Class of committed instruction
system.cpu.commit.op_class_0::FloatMemRead           36      0.00%    100.00% # Class of committed instruction
system.cpu.commit.op_class_0::FloatMemWrite           32      0.00%    100.00% # Class of committed instruction
system.cpu.commit.op_class_0::IprAccess             0      0.00%    100.00% # Class of committed instruction
system.cpu.commit.op_class_0::InstPrefetch            0      0.00%    100.00% # Class of committed instruction
system.cpu.commit.op_class_0::total          16643973                       # Class of committed instruction
system.cpu.commit.refs                        6032762                       # Number of memory references committed
system.cpu.commit.swp_count                         0                       # Number of s/w prefetches committed
system.cpu.commit.vec_insts                         0                       # Number of committed Vector instructions.
system.cpu.committedInsts                     9078150                       # Number of Instructions Simulated
system.cpu.committedOps                      16643973                       # Number of Ops (including micro ops) Simulated
system.cpu.cpi                               8.051086                       # CPI: Cycles Per Instruction
system.cpu.cpi_total                         8.051086                       # CPI: Total CPI of All Threads
system.cpu.dcache.ReadReq_accesses::.cpu.data      2526847                       # number of ReadReq accesses(hits+misses)
system.cpu.dcache.ReadReq_accesses::total      2526847                       # number of ReadReq accesses(hits+misses)
system.cpu.dcache.ReadReq_avg_miss_latency::.cpu.data 122408.543970                       # average ReadReq miss latency
system.cpu.dcache.ReadReq_avg_miss_latency::total 122408.543970                       # average ReadReq miss latency
system.cpu.dcache.ReadReq_avg_mshr_miss_latency::.cpu.data 120638.087652                       # average ReadReq mshr miss latency
system.cpu.dcache.ReadReq_avg_mshr_miss_latency::total 120638.087652                       # average ReadReq mshr miss latency
system.cpu.dcache.ReadReq_hits::.cpu.data      2030614                       # number of ReadReq hits
system.cpu.dcache.ReadReq_hits::total         2030614                       # number of ReadReq hits
system.cpu.dcache.ReadReq_miss_latency::.cpu.data  60743159000                       # number of ReadReq miss cycles
system.cpu.dcache.ReadReq_miss_latency::total  60743159000                       # number of ReadReq miss cycles
system.cpu.dcache.ReadReq_miss_rate::.cpu.data     0.196384                       # miss rate for ReadReq accesses
system.cpu.dcache.ReadReq_miss_rate::total     0.196384                       # miss rate for ReadReq accesses
system.cpu.dcache.ReadReq_misses::.cpu.data       496233                       # number of ReadReq misses
system.cpu.dcache.ReadReq_misses::total        496233                       # number of ReadReq misses
system.cpu.dcache.ReadReq_mshr_hits::.cpu.data         2829                       # number of ReadReq MSHR hits
system.cpu.dcache.ReadReq_mshr_hits::total         2829                       # number of ReadReq MSHR hits
system.cpu.dcache.ReadReq_mshr_miss_latency::.cpu.data  59523315000                       # number of ReadReq MSHR miss cycles
system.cpu.dcache.ReadReq_mshr_miss_latency::total  59523315000                       # number of ReadReq MSHR miss cycles
system.cpu.dcache.ReadReq_mshr_miss_rate::.cpu.data     0.195265                       # mshr miss rate for ReadReq accesses
system.cpu.dcache.ReadReq_mshr_miss_rate::total     0.195265                       # mshr miss rate for ReadReq accesses
system.cpu.dcache.ReadReq_mshr_misses::.cpu.data       493404                       # number of ReadReq MSHR misses
system.cpu.dcache.ReadReq_mshr_misses::total       493404                       # number of ReadReq MSHR misses
system.cpu.dcache.WriteReq_accesses::.cpu.data      2011652                       # number of WriteReq accesses(hits+misses)
system.cpu.dcache.WriteReq_accesses::total      2011652                       # number of WriteReq accesses(hits+misses)
system.cpu.dcache.WriteReq_avg_miss_latency::.cpu.data 106748.876682                       # average WriteReq miss latency
system.cpu.dcache.WriteReq_avg_miss_latency::total 106748.876682                       # average WriteReq miss latency
system.cpu.dcache.WriteReq_avg_mshr_miss_latency::.cpu.data 105218.179545                       # average WriteReq mshr miss latency
system.cpu.dcache.WriteReq_avg_mshr_miss_latency::total 105218.179545                       # average WriteReq mshr miss latency
system.cpu.dcache.WriteReq_hits::.cpu.data      2011206                       # number of WriteReq hits
system.cpu.dcache.WriteReq_hits::total        2011206                       # number of WriteReq hits
system.cpu.dcache.WriteReq_miss_latency::.cpu.data     47609999                       # number of WriteReq miss cycles
system.cpu.dcache.WriteReq_miss_latency::total     47609999                       # number of WriteReq miss cycles
system.cpu.dcache.WriteReq_miss_rate::.cpu.data     0.000222                       # miss rate for WriteReq accesses
system.cpu.dcache.WriteReq_miss_rate::total     0.000222                       # miss rate for WriteReq accesses
system.cpu.dcache.WriteReq_misses::.cpu.data          446                       # number of WriteReq misses
system.cpu.dcache.WriteReq_misses::total          446                       # number of WriteReq misses
system.cpu.dcache.WriteReq_mshr_hits::.cpu.data            6                       # number of WriteReq MSHR hits
system.cpu.dcache.WriteReq_mshr_hits::total            6                       # number of WriteReq MSHR hits
system.cpu.dcache.WriteReq_mshr_miss_latency::.cpu.data     46295999                       # number of WriteReq MSHR miss cycles
system.cpu.dcache.WriteReq_mshr_miss_latency::total     46295999                       # number of WriteReq MSHR miss cycles
system.cpu.dcache.WriteReq_mshr_miss_rate::.cpu.data     0.000219                       # mshr miss rate for WriteReq accesses
system.cpu.dcache.WriteReq_mshr_miss_rate::total     0.000219                       # mshr miss rate for WriteReq accesses
system.cpu.dcache.WriteReq_mshr_misses::.cpu.data          440                       # number of WriteReq MSHR misses
system.cpu.dcache.WriteReq_mshr_misses::total          440                       # number of WriteReq MSHR misses
system.cpu.dcache.avg_blocked_cycles::no_mshrs    64.818182                       # average number of cycles each access was blocked
system.cpu.dcache.avg_blocked_cycles::no_targets          nan                       # average number of cycles each access was blocked
system.cpu.dcache.blocked::no_mshrs               165                       # number of cycles access was blocked
system.cpu.dcache.blocked::no_targets               0                       # number of cycles access was blocked
system.cpu.dcache.blocked_cycles::no_mshrs        10695                       # number of cycles access was blocked
system.cpu.dcache.blocked_cycles::no_targets            0                       # number of cycles access was blocked
system.cpu.dcache.demand_accesses::.cpu.data      4538499                       # number of demand (read+write) accesses
system.cpu.dcache.demand_accesses::total      4538499                       # number of demand (read+write) accesses
system.cpu.dcache.demand_avg_miss_latency::.cpu.data 122394.482148                       # average overall miss latency
system.cpu.dcache.demand_avg_miss_latency::total 122394.482148                       # average overall miss latency
system.cpu.dcache.demand_avg_mshr_miss_latency::.cpu.data 120624.348983                       # average overall mshr miss latency
system.cpu.dcache.demand_avg_mshr_miss_latency::total 120624.348983                       # average overall mshr miss latency
system.cpu.dcache.demand_hits::.cpu.data      4041820                       # number of demand (read+write) hits
system.cpu.dcache.demand_hits::total          4041820                       # number of demand (read+write) hits
system.cpu.dcache.demand_miss_latency::.cpu.data  60790768999                       # number of demand (read+write) miss cycles
system.cpu.dcache.demand_miss_latency::total  60790768999                       # number of demand (read+write) miss cycles
system.cpu.dcache.demand_miss_rate::.cpu.data     0.109437                       # miss rate for demand accesses
system.cpu.dcache.demand_miss_rate::total     0.109437                       # miss rate for demand accesses
system.cpu.dcache.demand_misses::.cpu.data       496679                       # number of demand (read+write) misses
system.cpu.dcache.demand_misses::total         496679                       # number of demand (read+write) misses
system.cpu.dcache.demand_mshr_hits::.cpu.data         2835                       # number of demand (read+write) MSHR hits
system.cpu.dcache.demand_mshr_hits::total         2835                       # number of demand (read+write) MSHR hits
system.cpu.dcache.demand_mshr_miss_latency::.cpu.data  59569610999                       # number of demand (read+write) MSHR miss cycles
system.cpu.dcache.demand_mshr_miss_latency::total  59569610999                       # number of demand (read+write) MSHR miss cycles
system.cpu.dcache.demand_mshr_miss_rate::.cpu.data     0.108812                       # mshr miss rate for demand accesses
system.cpu.dcache.demand_mshr_miss_rate::total     0.108812                       # mshr miss rate for demand accesses
system.cpu.dcache.demand_mshr_misses::.cpu.data       493844                       # number of demand (read+write) MSHR misses
system.cpu.dcache.demand_mshr_misses::total       493844                       # number of demand (read+write) MSHR misses
system.cpu.dcache.overall_accesses::.cpu.data      4538499                       # number of overall (read+write) accesses
system.cpu.dcache.overall_accesses::total      4538499                       # number of overall (read+write) accesses
system.cpu.dcache.overall_avg_miss_latency::.cpu.data 122394.482148                       # average overall miss latency
system.cpu.dcache.overall_avg_miss_latency::total 122394.482148                       # average overall miss latency
system.cpu.dcache.overall_avg_mshr_miss_latency::.cpu.data 120624.348983                       # average overall mshr miss latency
system.cpu.dcache.overall_avg_mshr_miss_latency::total 120624.348983                       # average overall mshr miss latency
system.cpu.dcache.overall_hits::.cpu.data      4041820                       # number of overall hits
system.cpu.dcache.overall_hits::total         4041820                       # number of overall hits
system.cpu.dcache.overall_miss_latency::.cpu.data  60790768999                       # number of overall miss cycles
system.cpu.dcache.overall_miss_latency::total  60790768999                       # number of overall miss cycles
system.cpu.dcache.overall_miss_rate::.cpu.data     0.109437                       # miss rate for overall accesses
system.cpu.dcache.overall_miss_rate::total     0.109437                       # miss rate for overall accesses
system.cpu.dcache.overall_misses::.cpu.data       496679                       # number of overall misses
system.cpu.dcache.overall_misses::total        496679                       # number of overall misses
system.cpu.dcache.overall_mshr_hits::.cpu.data         2835                       # number of overall MSHR hits
system.cpu.dcache.overall_mshr_hits::total         2835                       # number of overall MSHR hits
system.cpu.dcache.overall_mshr_miss_latency::.cpu.data  59569610999                       # number of overall MSHR miss cycles
system.cpu.dcache.overall_mshr_miss_latency::total  59569610999                       # number of overall MSHR miss cycles
system.cpu.dcache.overall_mshr_miss_rate::.cpu.data     0.108812                       # mshr miss rate for overall accesses
system.cpu.dcache.overall_mshr_miss_rate::total     0.108812                       # mshr miss rate for overall accesses
system.cpu.dcache.overall_mshr_misses::.cpu.data       493844                       # number of overall MSHR misses
system.cpu.dcache.overall_mshr_misses::total       493844                       # number of overall MSHR misses
system.cpu.dcache.pwrStateResidencyTicks::UNDEFINED  73088964000                       # Cumulative time (in ticks) in various power states
system.cpu.dcache.replacements                 492820                       # number of replacements
system.cpu.dcache.tags.age_task_id_blocks_1024::0           97                       # Occupied blocks per task id
system.cpu.dcache.tags.age_task_id_blocks_1024::1          498                       # Occupied blocks per task id
system.cpu.dcache.tags.age_task_id_blocks_1024::2          428                       # Occupied blocks per task id
system.cpu.dcache.tags.age_task_id_blocks_1024::4            1                       # Occupied blocks per task id
system.cpu.dcache.tags.avg_refs              9.184406                       # Average number of references to valid blocks.
system.cpu.dcache.tags.data_accesses          9570842                       # Number of data accesses
system.cpu.dcache.tags.occ_blocks::.cpu.data  1023.025601                       # Average occupied blocks per requestor
system.cpu.dcache.tags.occ_percent::.cpu.data     0.999048                       # Average percentage of cache occupancy
system.cpu.dcache.tags.occ_percent::total     0.999048                       # Average percentage of cache occupancy
system.cpu.dcache.tags.occ_task_id_blocks::1024         1024                       # Occupied blocks per task id
system.cpu.dcache.tags.occ_task_id_percent::1024            1                       # Percentage of cache occupancy per task id
system.cpu.dcache.tags.pwrStateResidencyTicks::UNDEFINED  73088964000                       # Cumulative time (in ticks) in various power states
system.cpu.dcache.tags.sampled_refs            493844                       # Sample count of references to valid blocks.
system.cpu.dcache.tags.tag_accesses           9570842                       # Number of tag accesses
system.cpu.dcache.tags.tagsinuse          1023.025601                       # Cycle average of tags in use
system.cpu.dcache.tags.total_refs             4535664                       # Total number of references to valid blocks.
system.cpu.dcache.tags.warmup_cycle            244000                       # Cycle when the warmup percentage was hit.
system.cpu.dcache.writebacks::.writebacks          541                       # number of writebacks
system.cpu.dcache.writebacks::total               541                       # number of writebacks
system.cpu.decode.BlockedCycles              70235762                       # Number of cycles decode is blocked
system.cpu.decode.DecodedInsts               16775937                       # Number of instructions handled by decode
system.cpu.decode.IdleCycles                   721398                       # Number of cycles decode is idle
system.cpu.decode.RunCycles                     33399                       # Number of cycles decode is running
system.cpu.decode.SquashCycles                   3017                       # Number of cycles decode is squashing
system.cpu.decode.UnblockCycles               2069357                       # Number of cycles decode is unblocking
system.cpu.dtb.rdAccesses                     4029780                       # TLB accesses on read requests
system.cpu.dtb.rdMisses                        440209                       # TLB misses on read requests
system.cpu.dtb.walker.pwrStateResidencyTicks::UNDEFINED  73088964000                       # Cumulative time (in ticks) in various power states
system.cpu.dtb.wrAccesses                     2015168                       # TLB accesses on write requests
system.cpu.dtb.wrMisses                            94                       # TLB misses on write requests
system.cpu.dtb_walker_cache.avg_blocked_cycles::no_mshrs          nan                       # average number of cycles each access was blocked
system.cpu.dtb_walker_cache.avg_blocked_cycles::no_targets          nan                       # average number of cycles each access was blocked
system.cpu.dtb_walker_cache.blocked::no_mshrs            0                       # number of cycles access was blocked
system.cpu.dtb_walker_cache.blocked::no_targets            0                       # number of cycles access was blocked
system.cpu.dtb_walker_cache.blocked_cycles::no_mshrs            0                       # number of cycles access was blocked
system.cpu.dtb_walker_cache.blocked_cycles::no_targets            0                       # number of cycles access was blocked
system.cpu.dtb_walker_cache.pwrStateResidencyTicks::UNDEFINED  73088964000                       # Cumulative time (in ticks) in various power states
system.cpu.dtb_walker_cache.replacements            0                       # number of replacements
system.cpu.dtb_walker_cache.tags.avg_refs          nan                       # Average number of references to valid blocks.
system.cpu.dtb_walker_cache.tags.data_accesses            0                       # Number of data accesses
system.cpu.dtb_walker_cache.tags.pwrStateResidencyTicks::UNDEFINED  73088964000                       # Cumulative time (in ticks) in various power states
system.cpu.dtb_walker_cache.tags.sampled_refs            0                       # Sample count of references to valid blocks.
system.cpu.dtb_walker_cache.tags.tag_accesses            0                       # Number of tag accesses
system.cpu.dtb_walker_cache.tags.tagsinuse            0                       # Cycle average of tags in use
system.cpu.dtb_walker_cache.tags.total_refs            0                       # Total number of references to valid blocks.
system.cpu.dtb_walker_cache.tags.warmup_cycle            0                       # Cycle when the warmup percentage was hit.
system.cpu.fetch.Branches                      535363                       # Number of branches that fetch encountered
system.cpu.fetch.CacheLines                   1019089                       # Number of cache lines fetched
system.cpu.fetch.Cycles                      72019874                       # Number of cycles fetch has run and was not squashing or blocked
system.cpu.fetch.IcacheSquashes                  1189                       # Number of outstanding Icache misses that were squashed
system.cpu.fetch.Insts                        9165749                       # Number of instructions fetch has processed
system.cpu.fetch.MiscStallCycles                   27                       # Number of cycles fetch has spent waiting on interrupts, or bad addresses, or out of MSHRs
system.cpu.fetch.PendingQuiesceStallCycles           23                       # Number of stall cycles due to pending quiesce instructions
system.cpu.fetch.PendingTrapStallCycles           296                       # Number of stall cycles due to pending traps
system.cpu.fetch.SquashCycles                    6034                       # Number of cycles fetch has spent squashing
system.cpu.fetch.branchRate                  0.007325                       # Number of branch fetches per cycle
system.cpu.fetch.icacheStallCycles            1039696                       # Number of cycles fetch is stalled on an Icache miss
system.cpu.fetch.predictedBranches             514660                       # Number of branches that fetch has predicted taken
system.cpu.fetch.rate                        0.125405                       # Number of inst fetches per cycle
system.cpu.fetch.rateDist::samples           73062933                       # Number of instructions fetched each cycle (Total)
system.cpu.fetch.rateDist::mean              0.229970                       # Number of instructions fetched each cycle (Total)
system.cpu.fetch.rateDist::stdev             1.229960                       # Number of instructions fetched each cycle (Total)
system.cpu.fetch.rateDist::underflows               0      0.00%      0.00% # Number of instructions fetched each cycle (Total)
system.cpu.fetch.rateDist::0                 70138575     96.00%     96.00% # Number of instructions fetched each cycle (Total)
system.cpu.fetch.rateDist::1                   253205      0.35%     96.34% # Number of instructions fetched each cycle (Total)
system.cpu.fetch.rateDist::2                   189678      0.26%     96.60% # Number of instructions fetched each cycle (Total)
system.cpu.fetch.rateDist::3                   192535      0.26%     96.87% # Number of instructions fetched each cycle (Total)
system.cpu.fetch.rateDist::4                   254534      0.35%     97.22% # Number of instructions fetched each cycle (Total)
system.cpu.fetch.rateDist::5                   439862      0.60%     97.82% # Number of instructions fetched each cycle (Total)
system.cpu.fetch.rateDist::6                   127257      0.17%     97.99% # Number of instructions fetched each cycle (Total)
system.cpu.fetch.rateDist::7                   127176      0.17%     98.17% # Number of instructions fetched each cycle (Total)
system.cpu.fetch.rateDist::8                  1340111      1.83%    100.00% # Number of instructions fetched each cycle (Total)
system.cpu.fetch.rateDist::overflows                0      0.00%    100.00% # Number of instructions fetched each cycle (Total)
system.cpu.fetch.rateDist::min_value                0                       # Number of instructions fetched each cycle (Total)
system.cpu.fetch.rateDist::max_value                8                       # Number of instructions fetched each cycle (Total)
system.cpu.fetch.rateDist::total             73062933                       # Number of instructions fetched each cycle (Total)
system.cpu.fp_regfile_reads                       127                       # number of floating regfile reads
system.cpu.fp_regfile_writes                       77                       # number of floating regfile writes
system.cpu.icache.ReadReq_accesses::.cpu.inst      1019089                       # number of ReadReq accesses(hits+misses)
system.cpu.icache.ReadReq_accesses::total      1019089                       # number of ReadReq accesses(hits+misses)
system.cpu.icache.ReadReq_avg_miss_latency::.cpu.inst 78731.537793                       # average ReadReq miss latency
system.cpu.icache.ReadReq_avg_miss_latency::total 78731.537793                       # average ReadReq miss latency
system.cpu.icache.ReadReq_avg_mshr_miss_latency::.cpu.inst 81687.991021                       # average ReadReq mshr miss latency
system.cpu.icache.ReadReq_avg_mshr_miss_latency::total 81687.991021                       # average ReadReq mshr miss latency
system.cpu.icache.ReadReq_hits::.cpu.inst      1017938                       # number of ReadReq hits
system.cpu.icache.ReadReq_hits::total         1017938                       # number of ReadReq hits
system.cpu.icache.ReadReq_miss_latency::.cpu.inst     90620000                       # number of ReadReq miss cycles
system.cpu.icache.ReadReq_miss_latency::total     90620000                       # number of ReadReq miss cycles
system.cpu.icache.ReadReq_miss_rate::.cpu.inst     0.001129                       # miss rate for ReadReq accesses
system.cpu.icache.ReadReq_miss_rate::total     0.001129                       # miss rate for ReadReq accesses
system.cpu.icache.ReadReq_misses::.cpu.inst         1151                       # number of ReadReq misses
system.cpu.icache.ReadReq_misses::total          1151                       # number of ReadReq misses
system.cpu.icache.ReadReq_mshr_hits::.cpu.inst          260                       # number of ReadReq MSHR hits
system.cpu.icache.ReadReq_mshr_hits::total          260                       # number of ReadReq MSHR hits
system.cpu.icache.ReadReq_mshr_miss_latency::.cpu.inst     72784000                       # number of ReadReq MSHR miss cycles
system.cpu.icache.ReadReq_mshr_miss_latency::total     72784000                       # number of ReadReq MSHR miss cycles
system.cpu.icache.ReadReq_mshr_miss_rate::.cpu.inst     0.000874                       # mshr miss rate for ReadReq accesses
system.cpu.icache.ReadReq_mshr_miss_rate::total     0.000874                       # mshr miss rate for ReadReq accesses
system.cpu.icache.ReadReq_mshr_misses::.cpu.inst          891                       # number of ReadReq MSHR misses
system.cpu.icache.ReadReq_mshr_misses::total          891                       # number of ReadReq MSHR misses
system.cpu.icache.avg_blocked_cycles::no_mshrs           14                       # average number of cycles each access was blocked
system.cpu.icache.avg_blocked_cycles::no_targets          nan                       # average number of cycles each access was blocked
system.cpu.icache.blocked::no_mshrs                 1                       # number of cycles access was blocked
system.cpu.icache.blocked::no_targets               0                       # number of cycles access was blocked
system.cpu.icache.blocked_cycles::no_mshrs           14                       # number of cycles access was blocked
system.cpu.icache.blocked_cycles::no_targets            0                       # number of cycles access was blocked
system.cpu.icache.demand_accesses::.cpu.inst      1019089                       # number of demand (read+write) accesses
system.cpu.icache.demand_accesses::total      1019089                       # number of demand (read+write) accesses
system.cpu.icache.demand_avg_miss_latency::.cpu.inst 78731.537793                       # average overall miss latency
system.cpu.icache.demand_avg_miss_latency::total 78731.537793                       # average overall miss latency
system.cpu.icache.demand_avg_mshr_miss_latency::.cpu.inst 81687.991021                       # average overall mshr miss latency
system.cpu.icache.demand_avg_mshr_miss_latency::total 81687.991021                       # average overall mshr miss latency
system.cpu.icache.demand_hits::.cpu.inst      1017938                       # number of demand (read+write) hits
system.cpu.icache.demand_hits::total          1017938                       # number of demand (read+write) hits
system.cpu.icache.demand_miss_latency::.cpu.inst     90620000                       # number of demand (read+write) miss cycles
system.cpu.icache.demand_miss_latency::total     90620000                       # number of demand (read+write) miss cycles
system.cpu.icache.demand_miss_rate::.cpu.inst     0.001129                       # miss rate for demand accesses
system.cpu.icache.demand_miss_rate::total     0.001129                       # miss rate for demand accesses
system.cpu.icache.demand_misses::.cpu.inst         1151                       # number of demand (read+write) misses
system.cpu.icache.demand_misses::total           1151                       # number of demand (read+write) misses
system.cpu.icache.demand_mshr_hits::.cpu.inst          260                       # number of demand (read+write) MSHR hits
system.cpu.icache.demand_mshr_hits::total          260                       # number of demand (read+write) MSHR hits
system.cpu.icache.demand_mshr_miss_latency::.cpu.inst     72784000                       # number of demand (read+write) MSHR miss cycles
system.cpu.icache.demand_mshr_miss_latency::total     72784000                       # number of demand (read+write) MSHR miss cycles
system.cpu.icache.demand_mshr_miss_rate::.cpu.inst     0.000874                       # mshr miss rate for demand accesses
system.cpu.icache.demand_mshr_miss_rate::total     0.000874                       # mshr miss rate for demand accesses
system.cpu.icache.demand_mshr_misses::.cpu.inst          891                       # number of demand (read+write) MSHR misses
system.cpu.icache.demand_mshr_misses::total          891                       # number of demand (read+write) MSHR misses
system.cpu.icache.overall_accesses::.cpu.inst      1019089                       # number of overall (read+write) accesses
system.cpu.icache.overall_accesses::total      1019089                       # number of overall (read+write) accesses
system.cpu.icache.overall_avg_miss_latency::.cpu.inst 78731.537793                       # average overall miss latency
system.cpu.icache.overall_avg_miss_latency::total 78731.537793                       # average overall miss latency
system.cpu.icache.overall_avg_mshr_miss_latency::.cpu.inst 81687.991021                       # average overall mshr miss latency
system.cpu.icache.overall_avg_mshr_miss_latency::total 81687.991021                       # average overall mshr miss latency
system.cpu.icache.overall_hits::.cpu.inst      1017938                       # number of overall hits
system.cpu.icache.overall_hits::total         1017938                       # number of overall hits
system.cpu.icache.overall_miss_latency::.cpu.inst     90620000                       # number of overall miss cycles
system.cpu.icache.overall_miss_latency::total     90620000                       # number of overall miss cycles
system.cpu.icache.overall_miss_rate::.cpu.inst     0.001129                       # miss rate for overall accesses
system.cpu.icache.overall_miss_rate::total     0.001129                       # miss rate for overall accesses
system.cpu.icache.overall_misses::.cpu.inst         1151                       # number of overall misses
system.cpu.icache.overall_misses::total          1151                       # number of overall misses
system.cpu.icache.overall_mshr_hits::.cpu.inst          260                       # number of overall MSHR hits
system.cpu.icache.overall_mshr_hits::total          260                       # number of overall MSHR hits
system.cpu.icache.overall_mshr_miss_latency::.cpu.inst     72784000                       # number of overall MSHR miss cycles
system.cpu.icache.overall_mshr_miss_latency::total     72784000                       # number of overall MSHR miss cycles
system.cpu.icache.overall_mshr_miss_rate::.cpu.inst     0.000874                       # mshr miss rate for overall accesses
system.cpu.icache.overall_mshr_miss_rate::total     0.000874                       # mshr miss rate for overall accesses
system.cpu.icache.overall_mshr_misses::.cpu.inst          891                       # number of overall MSHR misses
system.cpu.icache.overall_mshr_misses::total          891                       # number of overall MSHR misses
system.cpu.icache.pwrStateResidencyTicks::UNDEFINED  73088964000                       # Cumulative time (in ticks) in various power states
system.cpu.icache.replacements                    634                       # number of replacements
system.cpu.icache.tags.age_task_id_blocks_1024::0           43                       # Occupied blocks per task id
system.cpu.icache.tags.age_task_id_blocks_1024::4          213                       # Occupied blocks per task id
system.cpu.icache.tags.avg_refs           1144.750562                       # Average number of references to valid blocks.
system.cpu.icache.tags.data_accesses          2039068                       # Number of data accesses
system.cpu.icache.tags.occ_blocks::.cpu.inst   255.950168                       # Average occupied blocks per requestor
system.cpu.icache.tags.occ_percent::.cpu.inst     0.999805                       # Average percentage of cache occupancy
system.cpu.icache.tags.occ_percent::total     0.999805                       # Average percentage of cache occupancy
system.cpu.icache.tags.occ_task_id_blocks::1024          256                       # Occupied blocks per task id
system.cpu.icache.tags.occ_task_id_percent::1024            1                       # Percentage of cache occupancy per task id
system.cpu.icache.tags.pwrStateResidencyTicks::UNDEFINED  73088964000                       # Cumulative time (in ticks) in various power states
system.cpu.icache.tags.sampled_refs               890                       # Sample count of references to valid blocks.
system.cpu.icache.tags.tag_accesses           2039068                       # Number of tag accesses
system.cpu.icache.tags.tagsinuse           255.950168                       # Cycle average of tags in use
system.cpu.icache.tags.total_refs             1018828                       # Total number of references to valid blocks.
system.cpu.icache.tags.warmup_cycle            108000                       # Cycle when the warmup percentage was hit.
system.cpu.icache.writebacks::.writebacks          634                       # number of writebacks
system.cpu.icache.writebacks::total               634                       # number of writebacks
system.cpu.idleCycles                           26032                       # Total number of cycles that the CPU has spent unscheduled due to idling
system.cpu.iew.branchMispredicts                 3551                       # Number of branch mispredicts detected at execute
system.cpu.iew.exec_branches                   520539                       # Number of branches executed
system.cpu.iew.exec_nop                             0                       # number of nop insts executed
system.cpu.iew.exec_rate                     0.228509                       # Inst execution rate
system.cpu.iew.exec_refs                      6045417                       # number of memory reference insts executed
system.cpu.iew.exec_stores                    2015167                       # Number of stores executed
system.cpu.iew.exec_swp                             0                       # number of swp insts executed
system.cpu.iew.iewBlockCycles                58937652                       # Number of cycles IEW is blocking
system.cpu.iew.iewDispLoadInsts               4036478                       # Number of dispatched load instructions
system.cpu.iew.iewDispNonSpecInsts                 57                       # Number of dispatched non-speculative instructions
system.cpu.iew.iewDispSquashedInsts               170                       # Number of squashed instructions skipped by dispatch
system.cpu.iew.iewDispStoreInsts              2018053                       # Number of dispatched store instructions
system.cpu.iew.iewDispatchedInsts            16744197                       # Number of instructions dispatched to IQ
system.cpu.iew.iewExecLoadInsts               4030250                       # Number of load instructions executed
system.cpu.iew.iewExecSquashedInsts              5884                       # Number of squashed instructions skipped in execute
system.cpu.iew.iewExecutedInsts              16701484                       # Number of executed instructions
system.cpu.iew.iewIQFullEvents                    218                       # Number of times the IQ has become full, causing a stall
system.cpu.iew.iewIdleCycles                        0                       # Number of cycles IEW is idle
system.cpu.iew.iewLSQFullEvents                  2405                       # Number of times the LSQ has become full, causing a stall
system.cpu.iew.iewSquashCycles                   3017                       # Number of cycles IEW is squashing
system.cpu.iew.iewUnblockCycles                  2781                       # Number of cycles IEW is unblocking
system.cpu.iew.lsq.thread0.blockedLoads             0                       # Number of blocked loads due to partial load-store forwarding
system.cpu.iew.lsq.thread0.cacheBlocked           147                       # Number of times an access to memory failed due to the cache being blocked
system.cpu.iew.lsq.thread0.forwLoads          1502507                       # Number of loads that had data forwarded from stores
system.cpu.iew.lsq.thread0.ignoredResponses           44                       # Number of memory responses ignored because the instruction is squashed
system.cpu.iew.lsq.thread0.invAddrLoads             0                       # Number of loads ignored due to an invalid address
system.cpu.iew.lsq.thread0.invAddrSwpfs             0                       # Number of software prefetches ignored due to an invalid address
system.cpu.iew.lsq.thread0.memOrderViolation          179                       # Number of memory ordering violations
system.cpu.iew.lsq.thread0.rescheduledLoads            0                       # Number of loads that were rescheduled
system.cpu.iew.lsq.thread0.squashedLoads        15367                       # Number of loads squashed
system.cpu.iew.lsq.thread0.squashedStores         6402                       # Number of stores squashed
system.cpu.iew.memOrderViolationEvents            179                       # Number of memory order violations
system.cpu.iew.predictedNotTakenIncorrect         2622                       # Number of branches that were predicted not taken incorrectly
system.cpu.iew.predictedTakenIncorrect            929                       # Number of branches that were predicted taken incorrectly
system.cpu.iew.wb_consumers                  17175137                       # num instructions consuming a value
system.cpu.iew.wb_count                      16697974                       # cumulative count of insts written-back
system.cpu.iew.wb_fanout                     0.703273                       # average fanout of values written-back
system.cpu.iew.wb_producers                  12078812                       # num instructions producing a value
system.cpu.iew.wb_rate                       0.228461                       # insts written-back per cycle
system.cpu.iew.wb_sent                       16699341                       # cumulative count of insts sent to commit
system.cpu.int_regfile_reads                 27796882                       # number of integer regfile reads
system.cpu.int_regfile_writes                14164449                       # number of integer regfile writes
system.cpu.interrupts.pwrStateResidencyTicks::UNDEFINED  73088964000                       # Cumulative time (in ticks) in various power states
system.cpu.ipc                               0.124207                       # IPC: Instructions Per Cycle
system.cpu.ipc_total                         0.124207                       # IPC: Total IPC of All Threads
system.cpu.iq.FU_type_0::No_OpClass              4200      0.03%      0.03% # Type of FU issued
system.cpu.iq.FU_type_0::IntAlu              10654414     63.77%     63.80% # Type of FU issued
system.cpu.iq.FU_type_0::IntMult                   38      0.00%     63.80% # Type of FU issued
system.cpu.iq.FU_type_0::IntDiv                  1367      0.01%     63.80% # Type of FU issued
system.cpu.iq.FU_type_0::FloatAdd                   9      0.00%     63.80% # Type of FU issued
system.cpu.iq.FU_type_0::FloatCmp                   0      0.00%     63.80% # Type of FU issued
system.cpu.iq.FU_type_0::FloatCvt                  16      0.00%     63.80% # Type of FU issued
system.cpu.iq.FU_type_0::FloatMult                  0      0.00%     63.80% # Type of FU issued
system.cpu.iq.FU_type_0::FloatMultAcc               0      0.00%     63.80% # Type of FU issued
system.cpu.iq.FU_type_0::FloatDiv                   0      0.00%     63.80% # Type of FU issued
system.cpu.iq.FU_type_0::FloatMisc                  0      0.00%     63.80% # Type of FU issued
system.cpu.iq.FU_type_0::FloatSqrt                  0      0.00%     63.80% # Type of FU issued
system.cpu.iq.FU_type_0::SimdAdd                    0      0.00%     63.80% # Type of FU issued
system.cpu.iq.FU_type_0::SimdAddAcc                 0      0.00%     63.80% # Type of FU issued
system.cpu.iq.FU_type_0::SimdAlu                    2      0.00%     63.80% # Type of FU issued
system.cpu.iq.FU_type_0::SimdCmp                    0      0.00%     63.80% # Type of FU issued
system.cpu.iq.FU_type_0::SimdCvt                   12      0.00%     63.80% # Type of FU issued
system.cpu.iq.FU_type_0::SimdMisc                  19      0.00%     63.80% # Type of FU issued
system.cpu.iq.FU_type_0::SimdMult                   0      0.00%     63.80% # Type of FU issued
system.cpu.iq.FU_type_0::SimdMultAcc                0      0.00%     63.80% # Type of FU issued
system.cpu.iq.FU_type_0::SimdShift                  0      0.00%     63.80% # Type of FU issued
system.cpu.iq.FU_type_0::SimdShiftAcc               0      0.00%     63.80% # Type of FU issued
system.cpu.iq.FU_type_0::SimdDiv                    0      0.00%     63.80% # Type of FU issued
system.cpu.iq.FU_type_0::SimdSqrt                   0      0.00%     63.80% # Type of FU issued
system.cpu.iq.FU_type_0::SimdFloatAdd               0      0.00%     63.80% # Type of FU issued
system.cpu.iq.FU_type_0::SimdFloatAlu               0      0.00%     63.80% # Type of FU issued
system.cpu.iq.FU_type_0::SimdFloatCmp               0      0.00%     63.80% # Type of FU issued
system.cpu.iq.FU_type_0::SimdFloatCvt               0      0.00%     63.80% # Type of FU issued
system.cpu.iq.FU_type_0::SimdFloatDiv               0      0.00%     63.80% # Type of FU issued
system.cpu.iq.FU_type_0::SimdFloatMisc              0      0.00%     63.80% # Type of FU issued
system.cpu.iq.FU_type_0::SimdFloatMult              0      0.00%     63.80% # Type of FU issued
system.cpu.iq.FU_type_0::SimdFloatMultAcc            0      0.00%     63.80% # Type of FU issued
system.cpu.iq.FU_type_0::SimdFloatSqrt              0      0.00%     63.80% # Type of FU issued
system.cpu.iq.FU_type_0::SimdReduceAdd              0      0.00%     63.80% # Type of FU issued
system.cpu.iq.FU_type_0::SimdReduceAlu              0      0.00%     63.80% # Type of FU issued
system.cpu.iq.FU_type_0::SimdReduceCmp              0      0.00%     63.80% # Type of FU issued
system.cpu.iq.FU_type_0::SimdFloatReduceAdd            0      0.00%     63.80% # Type of FU issued
system.cpu.iq.FU_type_0::SimdFloatReduceCmp            0      0.00%     63.80% # Type of FU issued
system.cpu.iq.FU_type_0::SimdAes                    0      0.00%     63.80% # Type of FU issued
system.cpu.iq.FU_type_0::SimdAesMix                 0      0.00%     63.80% # Type of FU issued
system.cpu.iq.FU_type_0::SimdSha1Hash               0      0.00%     63.80% # Type of FU issued
system.cpu.iq.FU_type_0::SimdSha1Hash2              0      0.00%     63.80% # Type of FU issued
system.cpu.iq.FU_type_0::SimdSha256Hash             0      0.00%     63.80% # Type of FU issued
system.cpu.iq.FU_type_0::SimdSha256Hash2            0      0.00%     63.80% # Type of FU issued
system.cpu.iq.FU_type_0::SimdShaSigma2              0      0.00%     63.80% # Type of FU issued
system.cpu.iq.FU_type_0::SimdShaSigma3              0      0.00%     63.80% # Type of FU issued
system.cpu.iq.FU_type_0::SimdPredAlu                0      0.00%     63.80% # Type of FU issued
system.cpu.iq.FU_type_0::MemRead              4031494     24.13%     87.93% # Type of FU issued
system.cpu.iq.FU_type_0::MemWrite             2015725     12.06%    100.00% # Type of FU issued
system.cpu.iq.FU_type_0::FloatMemRead              40      0.00%    100.00% # Type of FU issued
system.cpu.iq.FU_type_0::FloatMemWrite             32      0.00%    100.00% # Type of FU issued
system.cpu.iq.FU_type_0::IprAccess                  0      0.00%    100.00% # Type of FU issued
system.cpu.iq.FU_type_0::InstPrefetch               0      0.00%    100.00% # Type of FU issued
system.cpu.iq.FU_type_0::total               16707368                       # Type of FU issued
system.cpu.iq.fp_alu_accesses                     145                       # Number of floating point alu accesses
system.cpu.iq.fp_inst_queue_reads                 282                       # Number of floating instruction queue reads
system.cpu.iq.fp_inst_queue_wakeup_accesses          137                       # Number of floating instruction queue wakeup accesses
system.cpu.iq.fp_inst_queue_writes                151                       # Number of floating instruction queue writes
system.cpu.iq.fu_busy_cnt                        2205                       # FU busy when requested
system.cpu.iq.fu_busy_rate                   0.000132                       # FU busy rate (busy events/executed inst)
system.cpu.iq.fu_full::No_OpClass                   0      0.00%      0.00% # attempts to use FU when none available
system.cpu.iq.fu_full::IntAlu                    1297     58.82%     58.82% # attempts to use FU when none available
system.cpu.iq.fu_full::IntMult                      0      0.00%     58.82% # attempts to use FU when none available
system.cpu.iq.fu_full::IntDiv                       0      0.00%     58.82% # attempts to use FU when none available
system.cpu.iq.fu_full::FloatAdd                     0      0.00%     58.82% # attempts to use FU when none available
system.cpu.iq.fu_full::FloatCmp                     0      0.00%     58.82% # attempts to use FU when none available
system.cpu.iq.fu_full::FloatCvt                     0      0.00%     58.82% # attempts to use FU when none available
system.cpu.iq.fu_full::FloatMult                    0      0.00%     58.82% # attempts to use FU when none available
system.cpu.iq.fu_full::FloatMultAcc                 0      0.00%     58.82% # attempts to use FU when none available
system.cpu.iq.fu_full::FloatDiv                     0      0.00%     58.82% # attempts to use FU when none available
system.cpu.iq.fu_full::FloatMisc                    0      0.00%     58.82% # attempts to use FU when none available
system.cpu.iq.fu_full::FloatSqrt                    0      0.00%     58.82% # attempts to use FU when none available
system.cpu.iq.fu_full::SimdAdd                      0      0.00%     58.82% # attempts to use FU when none available
system.cpu.iq.fu_full::SimdAddAcc                   0      0.00%     58.82% # attempts to use FU when none available
system.cpu.iq.fu_full::SimdAlu                      0      0.00%     58.82% # attempts to use FU when none available
system.cpu.iq.fu_full::SimdCmp                      0      0.00%     58.82% # attempts to use FU when none available
system.cpu.iq.fu_full::SimdCvt                      0      0.00%     58.82% # attempts to use FU when none available
system.cpu.iq.fu_full::SimdMisc                     0      0.00%     58.82% # attempts to use FU when none available
system.cpu.iq.fu_full::SimdMult                     0      0.00%     58.82% # attempts to use FU when none available
system.cpu.iq.fu_full::SimdMultAcc                  0      0.00%     58.82% # attempts to use FU when none available
system.cpu.iq.fu_full::SimdShift                    0      0.00%     58.82% # attempts to use FU when none available
system.cpu.iq.fu_full::SimdShiftAcc                 0      0.00%     58.82% # attempts to use FU when none available
system.cpu.iq.fu_full::SimdDiv                      0      0.00%     58.82% # attempts to use FU when none available
system.cpu.iq.fu_full::SimdSqrt                     0      0.00%     58.82% # attempts to use FU when none available
system.cpu.iq.fu_full::SimdFloatAdd                 0      0.00%     58.82% # attempts to use FU when none available
system.cpu.iq.fu_full::SimdFloatAlu                 0      0.00%     58.82% # attempts to use FU when none available
system.cpu.iq.fu_full::SimdFloatCmp                 0      0.00%     58.82% # attempts to use FU when none available
system.cpu.iq.fu_full::SimdFloatCvt                 0      0.00%     58.82% # attempts to use FU when none available
system.cpu.iq.fu_full::SimdFloatDiv                 0      0.00%     58.82% # attempts to use FU when none available
system.cpu.iq.fu_full::SimdFloatMisc                0      0.00%     58.82% # attempts to use FU when none available
system.cpu.iq.fu_full::SimdFloatMult                0      0.00%     58.82% # attempts to use FU when none available
system.cpu.iq.fu_full::SimdFloatMultAcc             0      0.00%     58.82% # attempts to use FU when none available
system.cpu.iq.fu_full::SimdFloatSqrt                0      0.00%     58.82% # attempts to use FU when none available
system.cpu.iq.fu_full::SimdReduceAdd                0      0.00%     58.82% # attempts to use FU when none available
system.cpu.iq.fu_full::SimdReduceAlu                0      0.00%     58.82% # attempts to use FU when none available
system.cpu.iq.fu_full::SimdReduceCmp                0      0.00%     58.82% # attempts to use FU when none available
system.cpu.iq.fu_full::SimdFloatReduceAdd            0      0.00%     58.82% # attempts to use FU when none available
system.cpu.iq.fu_full::SimdFloatReduceCmp            0      0.00%     58.82% # attempts to use FU when none available
system.cpu.iq.fu_full::SimdAes                      0      0.00%     58.82% # attempts to use FU when none available
system.cpu.iq.fu_full::SimdAesMix                   0      0.00%     58.82% # attempts to use FU when none available
system.cpu.iq.fu_full::SimdSha1Hash                 0      0.00%     58.82% # attempts to use FU when none available
system.cpu.iq.fu_full::SimdSha1Hash2                0      0.00%     58.82% # attempts to use FU when none available
system.cpu.iq.fu_full::SimdSha256Hash               0      0.00%     58.82% # attempts to use FU when none available
system.cpu.iq.fu_full::SimdSha256Hash2              0      0.00%     58.82% # attempts to use FU when none available
system.cpu.iq.fu_full::SimdShaSigma2                0      0.00%     58.82% # attempts to use FU when none available
system.cpu.iq.fu_full::SimdShaSigma3                0      0.00%     58.82% # attempts to use FU when none available
system.cpu.iq.fu_full::SimdPredAlu                  0      0.00%     58.82% # attempts to use FU when none available
system.cpu.iq.fu_full::MemRead                    473     21.45%     80.27% # attempts to use FU when none available
system.cpu.iq.fu_full::MemWrite                   427     19.37%     99.64% # attempts to use FU when none available
system.cpu.iq.fu_full::FloatMemRead                 5      0.23%     99.86% # attempts to use FU when none available
system.cpu.iq.fu_full::FloatMemWrite                3      0.14%    100.00% # attempts to use FU when none available
system.cpu.iq.fu_full::IprAccess                    0      0.00%    100.00% # attempts to use FU when none available
system.cpu.iq.fu_full::InstPrefetch                 0      0.00%    100.00% # attempts to use FU when none available
system.cpu.iq.int_alu_accesses               16705228                       # Number of integer alu accesses
system.cpu.iq.int_inst_queue_reads          106479991                       # Number of integer instruction queue reads
system.cpu.iq.int_inst_queue_wakeup_accesses     16697837                       # Number of integer instruction queue wakeup accesses
system.cpu.iq.int_inst_queue_writes          16844427                       # Number of integer instruction queue writes
system.cpu.iq.iqInstsAdded                   16744128                       # Number of instructions added to the IQ (excludes non-spec)
system.cpu.iq.iqInstsIssued                  16707368                       # Number of instructions issued
system.cpu.iq.iqNonSpecInstsAdded                  69                       # Number of non-speculative instructions added to the IQ
system.cpu.iq.iqSquashedInstsExamined          100223                       # Number of squashed instructions iterated over during squash; mainly for profiling
system.cpu.iq.iqSquashedInstsIssued               399                       # Number of squashed instructions issued
system.cpu.iq.iqSquashedNonSpecRemoved             35                       # Number of squashed non-spec instructions that were removed
system.cpu.iq.iqSquashedOperandsExamined       159301                       # Number of squashed operands that are examined and possibly removed from graph
system.cpu.iq.issued_per_cycle::samples      73062933                       # Number of insts issued each cycle
system.cpu.iq.issued_per_cycle::mean         0.228671                       # Number of insts issued each cycle
system.cpu.iq.issued_per_cycle::stdev        0.617509                       # Number of insts issued each cycle
system.cpu.iq.issued_per_cycle::underflows            0      0.00%      0.00% # Number of insts issued each cycle
system.cpu.iq.issued_per_cycle::0            62436428     85.46%     85.46% # Number of insts issued each cycle
system.cpu.iq.issued_per_cycle::1             5828630      7.98%     93.43% # Number of insts issued each cycle
system.cpu.iq.issued_per_cycle::2             3575734      4.89%     98.33% # Number of insts issued each cycle
system.cpu.iq.issued_per_cycle::3             1196398      1.64%     99.96% # Number of insts issued each cycle
system.cpu.iq.issued_per_cycle::4                8323      0.01%     99.98% # Number of insts issued each cycle
system.cpu.iq.issued_per_cycle::5                6847      0.01%     99.99% # Number of insts issued each cycle
system.cpu.iq.issued_per_cycle::6                5490      0.01%     99.99% # Number of insts issued each cycle
system.cpu.iq.issued_per_cycle::7                3055      0.00%    100.00% # Number of insts issued each cycle
system.cpu.iq.issued_per_cycle::8                2028      0.00%    100.00% # Number of insts issued each cycle
system.cpu.iq.issued_per_cycle::overflows            0      0.00%    100.00% # Number of insts issued each cycle
system.cpu.iq.issued_per_cycle::min_value            0                       # Number of insts issued each cycle
system.cpu.iq.issued_per_cycle::max_value            8                       # Number of insts issued each cycle
system.cpu.iq.issued_per_cycle::total        73062933                       # Number of insts issued each cycle
system.cpu.iq.rate                           0.228589                       # Inst issue rate
system.cpu.iq.vec_alu_accesses                      0                       # Number of vector alu accesses
system.cpu.iq.vec_inst_queue_reads                  0                       # Number of vector instruction queue reads
system.cpu.iq.vec_inst_queue_wakeup_accesses            0                       # Number of vector instruction queue wakeup accesses
system.cpu.iq.vec_inst_queue_writes                 0                       # Number of vector instruction queue writes
system.cpu.itb.rdAccesses                           0                       # TLB accesses on read requests
system.cpu.itb.rdMisses                             0                       # TLB misses on read requests
system.cpu.itb.walker.pwrStateResidencyTicks::UNDEFINED  73088964000                       # Cumulative time (in ticks) in various power states
system.cpu.itb.wrAccesses                     1019146                       # TLB accesses on write requests
system.cpu.itb.wrMisses                           123                       # TLB misses on write requests
system.cpu.itb_walker_cache.avg_blocked_cycles::no_mshrs          nan                       # average number of cycles each access was blocked
system.cpu.itb_walker_cache.avg_blocked_cycles::no_targets          nan                       # average number of cycles each access was blocked
system.cpu.itb_walker_cache.blocked::no_mshrs            0                       # number of cycles access was blocked
system.cpu.itb_walker_cache.blocked::no_targets            0                       # number of cycles access was blocked
system.cpu.itb_walker_cache.blocked_cycles::no_mshrs            0                       # number of cycles access was blocked
system.cpu.itb_walker_cache.blocked_cycles::no_targets            0                       # number of cycles access was blocked
system.cpu.itb_walker_cache.pwrStateResidencyTicks::UNDEFINED  73088964000                       # Cumulative time (in ticks) in various power states
system.cpu.itb_walker_cache.replacements            0                       # number of replacements
system.cpu.itb_walker_cache.tags.avg_refs          nan                       # Average number of references to valid blocks.
system.cpu.itb_walker_cache.tags.data_accesses            0                       # Number of data accesses
system.cpu.itb_walker_cache.tags.pwrStateResidencyTicks::UNDEFINED  73088964000                       # Cumulative time (in ticks) in various power states
system.cpu.itb_walker_cache.tags.sampled_refs            0                       # Sample count of references to valid blocks.
system.cpu.itb_walker_cache.tags.tag_accesses            0                       # Number of tag accesses
system.cpu.itb_walker_cache.tags.tagsinuse            0                       # Cycle average of tags in use
system.cpu.itb_walker_cache.tags.total_refs            0                       # Total number of references to valid blocks.
system.cpu.itb_walker_cache.tags.warmup_cycle            0                       # Cycle when the warmup percentage was hit.
system.cpu.memDep0.conflictingLoads           3501233                       # Number of conflicting loads.
system.cpu.memDep0.conflictingStores          2000550                       # Number of conflicting stores.
system.cpu.memDep0.insertedLoads              4036478                       # Number of loads inserted to the mem dependence unit.
system.cpu.memDep0.insertedStores             2018053                       # Number of stores inserted to the mem dependence unit.
system.cpu.misc_regfile_reads                 7089231                       # number of misc regfile reads
system.cpu.misc_regfile_writes                      9                       # number of misc regfile writes
system.cpu.numCycles                         73088965                       # number of cpu cycles simulated
system.cpu.numWorkItemsCompleted                    0                       # number of work items this cpu completed
system.cpu.numWorkItemsStarted                      0                       # number of work items this cpu started
system.cpu.pwrStateResidencyTicks::ON     73088964000                       # Cumulative time (in ticks) in various power states
system.cpu.rename.BlockCycles                63443660                       # Number of cycles rename is blocking
system.cpu.rename.CommittedMaps              25178036                       # Number of HB maps that are committed
system.cpu.rename.IQFullEvents                6755487                       # Number of times rename has blocked due to IQ full
system.cpu.rename.IdleCycles                  1287414                       # Number of cycles rename is idle
system.cpu.rename.LQFullEvents                   1394                       # Number of times rename has blocked due to LQ full
system.cpu.rename.ROBFullEvents                  1570                       # Number of times rename has blocked due to ROB full
system.cpu.rename.RenameLookups              40197061                       # Number of register rename lookups that rename has made
system.cpu.rename.RenamedInsts               16764139                       # Number of instructions processed by rename
system.cpu.rename.RenamedOperands            25324100                       # Number of destination operands rename has renamed
system.cpu.rename.RunCycles                   1474599                       # Number of cycles rename is running
system.cpu.rename.SQFullEvents                  32639                       # Number of times rename has blocked due to SQ full
system.cpu.rename.SquashCycles                   3017                       # Number of cycles rename is squashing
system.cpu.rename.UnblockCycles               6852667                       # Number of cycles rename is unblocking
system.cpu.rename.UndoneMaps                   146064                       # Number of HB maps that are undone due to squashing
system.cpu.rename.fp_rename_lookups               127                       # Number of floating rename lookups
system.cpu.rename.int_rename_lookups         27916174                       # Number of integer rename lookups
system.cpu.rename.serializeStallCycles           1576                       # count of cycles rename stalled for serializing inst
system.cpu.rename.serializingInsts                 88                       # count of serializing insts renamed
system.cpu.rename.skidInsts                  12464442                       # count of insts added to the skid buffer
system.cpu.rename.tempSerializingInsts             54                       # count of temporary serializing insts renamed
system.cpu.rob.rob_reads                     89786011                       # The number of ROB reads
system.cpu.rob.rob_writes                    33504010                       # The number of ROB writes
system.cpu.timesIdled                             423                       # Number of times that the entire CPU went into an idle state and unscheduled itself
system.cpu.workload.numSyscalls                    25                       # Number of system calls
system.cpu_clk_domain.clock                      1000                       # Clock period in ticks
system.cpu_voltage_domain.voltage                   1                       # Voltage in Volts
system.l2.CleanEvict_mshr_miss_rate::.writebacks          inf                       # mshr miss rate for CleanEvict accesses
system.l2.CleanEvict_mshr_miss_rate::total          inf                       # mshr miss rate for CleanEvict accesses
system.l2.CleanEvict_mshr_misses::.writebacks            1                       # number of CleanEvict MSHR misses
system.l2.CleanEvict_mshr_misses::total             1                       # number of CleanEvict MSHR misses
system.l2.HardPFReq_avg_mshr_miss_latency::.l2.prefetcher 67887.443925                       # average HardPFReq mshr miss latency
system.l2.HardPFReq_avg_mshr_miss_latency::total 67887.443925                       # average HardPFReq mshr miss latency
system.l2.HardPFReq_mshr_miss_latency::.l2.prefetcher     14527913                       # number of HardPFReq MSHR miss cycles
system.l2.HardPFReq_mshr_miss_latency::total     14527913                       # number of HardPFReq MSHR miss cycles
system.l2.HardPFReq_mshr_miss_rate::.l2.prefetcher          inf                       # mshr miss rate for HardPFReq accesses
system.l2.HardPFReq_mshr_miss_rate::total          inf                       # mshr miss rate for HardPFReq accesses
system.l2.HardPFReq_mshr_misses::.l2.prefetcher          214                       # number of HardPFReq MSHR misses
system.l2.HardPFReq_mshr_misses::total            214                       # number of HardPFReq MSHR misses
system.l2.ReadCleanReq_accesses::.cpu.inst          891                       # number of ReadCleanReq accesses(hits+misses)
system.l2.ReadCleanReq_accesses::total            891                       # number of ReadCleanReq accesses(hits+misses)
system.l2.ReadCleanReq_avg_miss_latency::.cpu.inst 102427.662957                       # average ReadCleanReq miss latency
system.l2.ReadCleanReq_avg_miss_latency::total 102427.662957                       # average ReadCleanReq miss latency
system.l2.ReadCleanReq_avg_mshr_miss_latency::.cpu.inst        82720                       # average ReadCleanReq mshr miss latency
system.l2.ReadCleanReq_avg_mshr_miss_latency::total        82720                       # average ReadCleanReq mshr miss latency
system.l2.ReadCleanReq_hits::.cpu.inst            262                       # number of ReadCleanReq hits
system.l2.ReadCleanReq_hits::total                262                       # number of ReadCleanReq hits
system.l2.ReadCleanReq_miss_latency::.cpu.inst     64427000                       # number of ReadCleanReq miss cycles
system.l2.ReadCleanReq_miss_latency::total     64427000                       # number of ReadCleanReq miss cycles
system.l2.ReadCleanReq_miss_rate::.cpu.inst     0.705948                       # miss rate for ReadCleanReq accesses
system.l2.ReadCleanReq_miss_rate::total      0.705948                       # miss rate for ReadCleanReq accesses
system.l2.ReadCleanReq_misses::.cpu.inst          629                       # number of ReadCleanReq misses
system.l2.ReadCleanReq_misses::total              629                       # number of ReadCleanReq misses
system.l2.ReadCleanReq_mshr_hits::.cpu.inst            4                       # number of ReadCleanReq MSHR hits
system.l2.ReadCleanReq_mshr_hits::total             4                       # number of ReadCleanReq MSHR hits
system.l2.ReadCleanReq_mshr_miss_latency::.cpu.inst     51700000                       # number of ReadCleanReq MSHR miss cycles
system.l2.ReadCleanReq_mshr_miss_latency::total     51700000                       # number of ReadCleanReq MSHR miss cycles
system.l2.ReadCleanReq_mshr_miss_rate::.cpu.inst     0.701459                       # mshr miss rate for ReadCleanReq accesses
system.l2.ReadCleanReq_mshr_miss_rate::total     0.701459                       # mshr miss rate for ReadCleanReq accesses
system.l2.ReadCleanReq_mshr_misses::.cpu.inst          625                       # number of ReadCleanReq MSHR misses
system.l2.ReadCleanReq_mshr_misses::total          625                       # number of ReadCleanReq MSHR misses
system.l2.ReadExReq_accesses::.cpu.data           440                       # number of ReadExReq accesses(hits+misses)
system.l2.ReadExReq_accesses::total               440                       # number of ReadExReq accesses(hits+misses)
system.l2.ReadExReq_avg_miss_latency::.cpu.data 105952.380952                       # average ReadExReq miss latency
system.l2.ReadExReq_avg_miss_latency::total 105952.380952                       # average ReadExReq miss latency
system.l2.ReadExReq_avg_mshr_miss_latency::.cpu.data 85952.380952                       # average ReadExReq mshr miss latency
system.l2.ReadExReq_avg_mshr_miss_latency::total 85952.380952                       # average ReadExReq mshr miss latency
system.l2.ReadExReq_hits::.cpu.data                20                       # number of ReadExReq hits
system.l2.ReadExReq_hits::total                    20                       # number of ReadExReq hits
system.l2.ReadExReq_miss_latency::.cpu.data     44500000                       # number of ReadExReq miss cycles
system.l2.ReadExReq_miss_latency::total      44500000                       # number of ReadExReq miss cycles
system.l2.ReadExReq_miss_rate::.cpu.data     0.954545                       # miss rate for ReadExReq accesses
system.l2.ReadExReq_miss_rate::total         0.954545                       # miss rate for ReadExReq accesses
system.l2.ReadExReq_misses::.cpu.data             420                       # number of ReadExReq misses
system.l2.ReadExReq_misses::total                 420                       # number of ReadExReq misses
system.l2.ReadExReq_mshr_miss_latency::.cpu.data     36100000                       # number of ReadExReq MSHR miss cycles
system.l2.ReadExReq_mshr_miss_latency::total     36100000                       # number of ReadExReq MSHR miss cycles
system.l2.ReadExReq_mshr_miss_rate::.cpu.data     0.954545                       # mshr miss rate for ReadExReq accesses
system.l2.ReadExReq_mshr_miss_rate::total     0.954545                       # mshr miss rate for ReadExReq accesses
system.l2.ReadExReq_mshr_misses::.cpu.data          420                       # number of ReadExReq MSHR misses
system.l2.ReadExReq_mshr_misses::total            420                       # number of ReadExReq MSHR misses
system.l2.ReadSharedReq_accesses::.cpu.data       493404                       # number of ReadSharedReq accesses(hits+misses)
[...]
system.mem_ctrls.wrQLenPdf::26                     29                       # What write queue length does an incoming req see
system.mem_ctrls.wrQLenPdf::27                     29                       # What write queue length does an incoming req see
system.mem_ctrls.wrQLenPdf::28                     28                       # What write queue length does an incoming req see
system.mem_ctrls.wrQLenPdf::29                     28                       # What write queue length does an incoming req see
system.mem_ctrls.wrQLenPdf::30                     28                       # What write queue length does an incoming req see
system.mem_ctrls.wrQLenPdf::31                     28                       # What write queue length does an incoming req see
system.mem_ctrls.wrQLenPdf::32                     28                       # What write queue length does an incoming req see
system.mem_ctrls.wrQLenPdf::33                      0                       # What write queue length does an incoming req see
system.mem_ctrls.wrQLenPdf::34                      0                       # What write queue length does an incoming req see
system.mem_ctrls.wrQLenPdf::35                      0                       # What write queue length does an incoming req see
system.mem_ctrls.wrQLenPdf::36                      0                       # What write queue length does an incoming req see
system.mem_ctrls.wrQLenPdf::37                      0                       # What write queue length does an incoming req see
system.mem_ctrls.wrQLenPdf::38                      0                       # What write queue length does an incoming req see
system.mem_ctrls.wrQLenPdf::39                      0                       # What write queue length does an incoming req see
system.mem_ctrls.wrQLenPdf::40                      0                       # What write queue length does an incoming req see
system.mem_ctrls.wrQLenPdf::41                      0                       # What write queue length does an incoming req see
system.mem_ctrls.wrQLenPdf::42                      0                       # What write queue length does an incoming req see
system.mem_ctrls.wrQLenPdf::43                      0                       # What write queue length does an incoming req see
system.mem_ctrls.wrQLenPdf::44                      0                       # What write queue length does an incoming req see
system.mem_ctrls.wrQLenPdf::45                      0                       # What write queue length does an incoming req see
system.mem_ctrls.wrQLenPdf::46                      0                       # What write queue length does an incoming req see
system.mem_ctrls.wrQLenPdf::47                      0                       # What write queue length does an incoming req see
system.mem_ctrls.wrQLenPdf::48                      0                       # What write queue length does an incoming req see
system.mem_ctrls.wrQLenPdf::49                      0                       # What write queue length does an incoming req see
system.mem_ctrls.wrQLenPdf::50                      0                       # What write queue length does an incoming req see
system.mem_ctrls.wrQLenPdf::51                      0                       # What write queue length does an incoming req see
system.mem_ctrls.wrQLenPdf::52                      0                       # What write queue length does an incoming req see
system.mem_ctrls.wrQLenPdf::53                      0                       # What write queue length does an incoming req see
system.mem_ctrls.wrQLenPdf::54                      0                       # What write queue length does an incoming req see
system.mem_ctrls.wrQLenPdf::55                      0                       # What write queue length does an incoming req see
system.mem_ctrls.wrQLenPdf::56                      0                       # What write queue length does an incoming req see
system.mem_ctrls.wrQLenPdf::57                      0                       # What write queue length does an incoming req see
system.mem_ctrls.wrQLenPdf::58                      0                       # What write queue length does an incoming req see
system.mem_ctrls.wrQLenPdf::59                      0                       # What write queue length does an incoming req see
system.mem_ctrls.wrQLenPdf::60                      0                       # What write queue length does an incoming req see
system.mem_ctrls.wrQLenPdf::61                      0                       # What write queue length does an incoming req see
system.mem_ctrls.wrQLenPdf::62                      0                       # What write queue length does an incoming req see
system.mem_ctrls.wrQLenPdf::63                      0                       # What write queue length does an incoming req see
system.mem_ctrls.writeBursts                      480                       # Number of DRAM write bursts, including those merged in the write queue
system.mem_ctrls.writePktSize::0                    0                       # Write request sizes (log2)
system.mem_ctrls.writePktSize::1                    0                       # Write request sizes (log2)
system.mem_ctrls.writePktSize::2                    0                       # Write request sizes (log2)
system.mem_ctrls.writePktSize::3                    0                       # Write request sizes (log2)
system.mem_ctrls.writePktSize::4                    0                       # Write request sizes (log2)
system.mem_ctrls.writePktSize::5                    0                       # Write request sizes (log2)
system.mem_ctrls.writePktSize::6                  480                       # Write request sizes (log2)
system.mem_ctrls.writeReqs                        480                       # Number of write requests accepted
system.mem_ctrls.writeRowHitRate                74.58                       # Row buffer hit rate for writes
system.mem_ctrls.writeRowHits                     358                       # Number of row buffer hits during writes
system.mem_ctrls_0.actBackEnergy           6073490790                       # Energy for active background per rank (pJ)
system.mem_ctrls_0.actEnergy               1610933940                       # Energy for activate commands per rank (pJ)
system.mem_ctrls_0.actPowerDownEnergy     26498643930                       # Energy for active power-down per rank (pJ)
system.mem_ctrls_0.averagePower            590.032935                       # Core power per rank (mW)
system.mem_ctrls_0.memoryStateTime::IDLE     52215000                       # Time in different power states
system.mem_ctrls_0.memoryStateTime::REF    2440360000                       # Time in different power states
system.mem_ctrls_0.memoryStateTime::SREF            0                       # Time in different power states
system.mem_ctrls_0.memoryStateTime::PRE_PDN   1326017500                       # Time in different power states
system.mem_ctrls_0.memoryStateTime::ACT   11152357246                       # Time in different power states
system.mem_ctrls_0.memoryStateTime::ACT_PDN  58118014254                       # Time in different power states
system.mem_ctrls_0.preBackEnergy            127566720                       # Energy for precharge background per rank (pJ)
system.mem_ctrls_0.preEnergy                856201335                       # Energy for precharge commands per rank (pJ)
system.mem_ctrls_0.prePowerDownEnergy       509429760                       # Energy for precharge power-down per rank (pJ)
system.mem_ctrls_0.readEnergy              1677457320                       # Energy for read commands per rank (pJ)
system.mem_ctrls_0.refreshEnergy         5769011040.000001                       # Energy for refresh commands per rank (pJ)
system.mem_ctrls_0.selfRefreshEnergy                0                       # Energy for self refresh per rank (pJ)
system.mem_ctrls_0.totalEnergy            43124895915                       # Total energy per rank (pJ)
system.mem_ctrls_0.totalIdleTime          59443966504                       # Total Idle time Per DRAM Rank
system.mem_ctrls_0.writeEnergy                2161080                       # Energy for write commands per rank (pJ)
system.mem_ctrls_1.actBackEnergy           6070628250                       # Energy for active background per rank (pJ)
system.mem_ctrls_1.actEnergy               1608584880                       # Energy for activate commands per rank (pJ)
system.mem_ctrls_1.actPowerDownEnergy     26498114400                       # Energy for active power-down per rank (pJ)
system.mem_ctrls_1.averagePower            589.953295                       # Core power per rank (mW)
system.mem_ctrls_1.memoryStateTime::IDLE     53469000                       # Time in different power states
system.mem_ctrls_1.memoryStateTime::REF    2440360000                       # Time in different power states
system.mem_ctrls_1.memoryStateTime::SREF            0                       # Time in different power states
system.mem_ctrls_1.memoryStateTime::PRE_PDN   1331741000                       # Time in different power states
system.mem_ctrls_1.memoryStateTime::ACT   11146227996                       # Time in different power states
system.mem_ctrls_1.memoryStateTime::ACT_PDN  58117166004                       # Time in different power states
system.mem_ctrls_1.preBackEnergy            128231520                       # Energy for precharge background per rank (pJ)
system.mem_ctrls_1.preEnergy                854956575                       # Energy for precharge commands per rank (pJ)
system.mem_ctrls_1.prePowerDownEnergy       511621440                       # Energy for precharge power-down per rank (pJ)
system.mem_ctrls_1.readEnergy              1677728640                       # Energy for read commands per rank (pJ)
system.mem_ctrls_1.refreshEnergy         5769011040.000001                       # Energy for refresh commands per rank (pJ)
system.mem_ctrls_1.selfRefreshEnergy                0                       # Energy for self refresh per rank (pJ)
system.mem_ctrls_1.totalEnergy            43119075105                       # Total energy per rank (pJ)
system.mem_ctrls_1.totalIdleTime          59448717504                       # Total Idle time Per DRAM Rank
system.mem_ctrls_1.writeEnergy                 198360                       # Energy for write commands per rank (pJ)
system.membus.pkt_count_system.l2.mem_side::system.mem_ctrls.port      1405445                       # Packet count per connected master and slave (bytes)
system.membus.pkt_count_system.l2.mem_side::total      1405445                       # Packet count per connected master and slave (bytes)
system.membus.pkt_count::total                1405445                       # Packet count per connected master and slave (bytes)
system.membus.pkt_size_system.l2.mem_side::system.mem_ctrls.port     30105536                       # Cumulative packet size per connected master and slave (bytes)
system.membus.pkt_size_system.l2.mem_side::total     30105536                       # Cumulative packet size per connected master and slave (bytes)
system.membus.pkt_size::total                30105536                       # Cumulative packet size per connected master and slave (bytes)
system.membus.pwrStateResidencyTicks::UNDEFINED  73088964000                       # Cumulative time (in ticks) in various power states
system.membus.reqLayer2.occupancy           937458987                       # Layer occupancy (ticks)
system.membus.reqLayer2.utilization               1.3                       # Layer utilization (%)
system.membus.respLayer1.occupancy         2654865504                       # Layer occupancy (ticks)
system.membus.respLayer1.utilization              3.6                       # Layer utilization (%)
system.membus.snoopTraffic                          0                       # Total snoop traffic (bytes)
system.membus.snoop_fanout::samples            469919                       # Request fanout histogram
system.membus.snoop_fanout::mean                    0                       # Request fanout histogram
system.membus.snoop_fanout::stdev                   0                       # Request fanout histogram
system.membus.snoop_fanout::underflows              0      0.00%      0.00% # Request fanout histogram
system.membus.snoop_fanout::0                  469919    100.00%    100.00% # Request fanout histogram
system.membus.snoop_fanout::1                       0      0.00%    100.00% # Request fanout histogram
system.membus.snoop_fanout::overflows               0      0.00%    100.00% # Request fanout histogram
system.membus.snoop_fanout::min_value               0                       # Request fanout histogram
system.membus.snoop_fanout::max_value               0                       # Request fanout histogram
system.membus.snoop_fanout::total              469919                       # Request fanout histogram
system.membus.snoop_filter.hit_multi_requests            0                       # Number of requests hitting in the snoop filter with multiple (>1) holders of the requested data.
system.membus.snoop_filter.hit_multi_snoops            0                       # Number of snoops hitting in the snoop filter with multiple (>1) holders of the requested data.
system.membus.snoop_filter.hit_single_requests       465607                       # Number of requests hitting in the snoop filter with a single holder of the requested data.
system.membus.snoop_filter.hit_single_snoops            0                       # Number of snoops hitting in the snoop filter with a single holder of the requested data.
system.membus.snoop_filter.tot_requests        935526                       # Total number of requests made to the snoop filter.
system.membus.snoop_filter.tot_snoops               0                       # Total number of snoops made to the snoop filter.
system.membus.snoops                                0                       # Total snoops (count)
system.membus.trans_dist::ReadResp             469499                       # Transaction distribution
system.membus.trans_dist::WritebackDirty          480                       # Transaction distribution
system.membus.trans_dist::CleanEvict           465127                       # Transaction distribution
system.membus.trans_dist::ReadExReq               420                       # Transaction distribution
system.membus.trans_dist::ReadExResp              420                       # Transaction distribution
system.membus.trans_dist::ReadSharedReq        469499                       # Transaction distribution
system.tol2bus.pkt_count_system.cpu.icache.mem_side::system.l2.cpu_side         2415                       # Packet count per connected master and slave (bytes)
system.tol2bus.pkt_count_system.cpu.dcache.mem_side::system.l2.cpu_side      1480508                       # Packet count per connected master and slave (bytes)
system.tol2bus.pkt_count::total               1482923                       # Packet count per connected master and slave (bytes)
system.tol2bus.pkt_size_system.cpu.icache.mem_side::system.l2.cpu_side        97536                       # Cumulative packet size per connected master and slave (bytes)
system.tol2bus.pkt_size_system.cpu.dcache.mem_side::system.l2.cpu_side     31640640                       # Cumulative packet size per connected master and slave (bytes)
system.tol2bus.pkt_size::total               31738176                       # Cumulative packet size per connected master and slave (bytes)
system.tol2bus.pwrStateResidencyTicks::UNDEFINED  73088964000                       # Cumulative time (in ticks) in various power states
system.tol2bus.reqLayer0.occupancy          990539000                       # Layer occupancy (ticks)
system.tol2bus.reqLayer0.utilization              1.4                       # Layer utilization (%)
system.tol2bus.respLayer0.occupancy           2670999                       # Layer occupancy (ticks)
system.tol2bus.respLayer0.utilization             0.0                       # Layer utilization (%)
system.tol2bus.respLayer1.occupancy        1481532999                       # Layer occupancy (ticks)
system.tol2bus.respLayer1.utilization             2.0                       # Layer utilization (%)
system.tol2bus.snoopTraffic                     30720                       # Total snoop traffic (bytes)
system.tol2bus.snoop_fanout::samples           960896                       # Request fanout histogram
system.tol2bus.snoop_fanout::mean            0.000284                       # Request fanout histogram
system.tol2bus.snoop_fanout::stdev           0.016853                       # Request fanout histogram
system.tol2bus.snoop_fanout::underflows             0      0.00%      0.00% # Request fanout histogram
system.tol2bus.snoop_fanout::0                 960623     99.97%     99.97% # Request fanout histogram
system.tol2bus.snoop_fanout::1                    273      0.03%    100.00% # Request fanout histogram
system.tol2bus.snoop_fanout::2                      0      0.00%    100.00% # Request fanout histogram
system.tol2bus.snoop_fanout::3                      0      0.00%    100.00% # Request fanout histogram
system.tol2bus.snoop_fanout::4                      0      0.00%    100.00% # Request fanout histogram
system.tol2bus.snoop_fanout::overflows              0      0.00%    100.00% # Request fanout histogram
system.tol2bus.snoop_fanout::min_value              0                       # Request fanout histogram
system.tol2bus.snoop_fanout::max_value              1                       # Request fanout histogram
system.tol2bus.snoop_fanout::total             960896                       # Request fanout histogram
system.tol2bus.snoop_filter.hit_multi_requests           11                       # Number of requests hitting in the snoop filter with multiple (>1) holders of the requested data.
system.tol2bus.snoop_filter.hit_multi_snoops            0                       # Number of snoops hitting in the snoop filter with multiple (>1) holders of the requested data.
system.tol2bus.snoop_filter.hit_single_requests       493454                       # Number of requests hitting in the snoop filter with a single holder of the requested data.
system.tol2bus.snoop_filter.hit_single_snoops          262                       # Number of snoops hitting in the snoop filter with a single holder of the requested data.
system.tol2bus.snoop_filter.tot_requests       988189                       # Total number of requests made to the snoop filter.
system.tol2bus.snoop_filter.tot_snoops            262                       # Total number of snoops made to the snoop filter.
system.tol2bus.snoops                          466161                       # Total snoops (count)
system.tol2bus.trans_dist::ReadResp            494294                       # Transaction distribution
system.tol2bus.trans_dist::WritebackDirty         1021                       # Transaction distribution
system.tol2bus.trans_dist::WritebackClean          634                       # Transaction distribution
system.tol2bus.trans_dist::CleanEvict          957669                       # Transaction distribution
system.tol2bus.trans_dist::HardPFReq              291                       # Transaction distribution
system.tol2bus.trans_dist::ReadExReq              440                       # Transaction distribution
system.tol2bus.trans_dist::ReadExResp             440                       # Transaction distribution
system.tol2bus.trans_dist::ReadCleanReq           891                       # Transaction distribution
system.tol2bus.trans_dist::ReadSharedReq       493404                       # Transaction distribution
system.voltage_domain.voltage                       1                       # Voltage in Volts

---------- End Simulation Statistics   ----------
