
---------- Begin Simulation Statistics ----------
final_tick                                66413234000                       # Number of ticks from beginning of simulation (restored from checkpoints and never reset)
host_inst_rate                                  84228                       # Simulator instruction rate (inst/s)
host_mem_usage                                 806652                       # Number of bytes of host memory used
host_op_rate                                   154424                       # Simulator op (including micro ops) rate (op/s)
host_seconds                                   107.78                       # Real time elapsed on the host
host_tick_rate                              616186536                       # Simulator tick rate (ticks/s)
sim_freq                                 1000000000000                       # Frequency of simulated ticks
sim_insts                                     9078150                       # Number of instructions simulated
sim_ops                                      16643973                       # Number of ops (including micro ops) simulated
sim_seconds                                  0.066413                       # Number of seconds simulated
sim_ticks                                 66413234000                       # Number of ticks simulated
system.clk_domain.clock                          1000                       # Clock period in ticks
system.cpu.apic_clk_domain.clock                16000                       # Clock period in ticks
system.cpu.branchPred.BTBCorrect                    0                       # Number of correct BTB predictions (this stat may not work properly.
system.cpu.branchPred.BTBHitPct              0.000000                       # BTB Hit Percentage
system.cpu.branchPred.BTBHits                       0                       # Number of BTB hits
system.cpu.branchPred.BTBLookups               531921                       # Number of BTB lookups
system.cpu.branchPred.RASInCorrect                361                       # Number of incorrect RAS predictions.
system.cpu.branchPred.condIncorrect              2792                       # Number of conditional branches incorrect
system.cpu.branchPred.condPredicted            535219                       # Number of conditional branches predicted
system.cpu.branchPred.indirectHits             513158                       # Number of indirect target hits.
system.cpu.branchPred.indirectLookups          531921                       # Number of indirect predictor lookups.
system.cpu.branchPred.indirectMisses            18763                       # Number of indirect misses.
system.cpu.branchPred.lookups                  535219                       # Number of BP lookups
system.cpu.branchPred.usedRAS                    1461                       # Number of times the RAS was used to get a target.
system.cpu.branchPredindirectMispredicted         1682                       # Number of mispredicted indirect branches.
system.cpu.cc_regfile_reads                   5107188                       # number of cc regfile reads
system.cpu.cc_regfile_writes                 11072081                       # number of cc regfile writes
system.cpu.commit.amos                              0                       # Number of atomic instructions committed
system.cpu.commit.branchMispredicts              2813                       # The number of times a branch was mispredicted
system.cpu.commit.branches                     516932                       # Number of branches committed
system.cpu.commit.bw_lim_events                  5741                       # number cycles where commit BW limit reached
system.cpu.commit.commitNonSpecStalls              34                       # The number of times commit has been forced to stall to communicate backwards
system.cpu.commit.commitSquashedInsts           98039                       # The number of squashed insts skipped by commit
system.cpu.commit.committedInsts              9078150                       # Number of instructions committed
system.cpu.commit.committedOps               16643973                       # Number of ops (including micro ops) committed
system.cpu.commit.committed_per_cycle::samples     66375530                       # Number of insts commited each cycle
system.cpu.commit.committed_per_cycle::mean     0.250755                       # Number of insts commited each cycle
system.cpu.commit.committed_per_cycle::stdev     0.747079                       # Number of insts commited each cycle
system.cpu.commit.committed_per_cycle::underflows            0      0.00%      0.00% # Number of insts commited each cycle
system.cpu.commit.committed_per_cycle::0     56832182     85.62%     85.62% # Number of insts commited each cycle
system.cpu.commit.committed_per_cycle::1      5513373      8.31%     93.93% # Number of insts commited each cycle
system.cpu.commit.committed_per_cycle::2      2505624      3.77%     97.70% # Number of insts commited each cycle
system.cpu.commit.committed_per_cycle::3       510039      0.77%     98.47% # Number of insts commited each cycle
system.cpu.commit.committed_per_cycle::4       502723      0.76%     99.23% # Number of insts commited each cycle
system.cpu.commit.committed_per_cycle::5       503278      0.76%     99.99% # Number of insts commited each cycle
system.cpu.commit.committed_per_cycle::6         1965      0.00%     99.99% # Number of insts commited each cycle
system.cpu.commit.committed_per_cycle::7          605      0.00%     99.99% # Number of insts commited each cycle
system.cpu.commit.committed_per_cycle::8         5741      0.01%    100.00% # Number of insts commited each cycle
system.cpu.commit.committed_per_cycle::overflows            0      0.00%    100.00% # Number of insts commited each cycle
system.cpu.commit.committed_per_cycle::min_value            0                       # Number of insts commited each cycle
system.cpu.commit.committed_per_cycle::max_value            8                       # Number of insts commited each cycle
system.cpu.commit.committed_per_cycle::total     66375530                       # Number of insts commited each cycle
system.cpu.commit.fp_insts                        123                       # Number of committed floating point instructions.
system.cpu.commit.function_calls                  634                       # Number of function calls committed.
system.cpu.commit.int_insts                  16640875                       # Number of committed integer instructions.
system.cpu.commit.loads                       4021111                       # Number of loads committed
system.cpu.commit.membars                           0                       # Number of memory barriers committed
system.cpu.commit.op_class_0::No_OpClass         3068      0.02%      0.02% # Class of committed instruction
system.cpu.commit.op_class_0::IntAlu         10606816     63.73%     63.75% # Class of committed instruction
system.cpu.commit.op_class_0::IntMult              17      0.00%     63.75% # Class of committed instruction
system.cpu.commit.op_class_0::IntDiv             1260      0.01%     63.75% # Class of committed instruction
system.cpu.commit.op_class_0::FloatAdd              9      0.00%     63.75% # Class of committed instruction
system.cpu.commit.op_class_0::FloatCmp              0      0.00%     63.75% # Class of committed instruction
system.cpu.commit.op_class_0::FloatCvt             16      0.00%     63.75% # Class of committed instruction
system.cpu.commit.op_class_0::FloatMult             0      0.00%     63.75% # Class of committed instruction
system.cpu.commit.op_class_0::FloatMultAcc            0      0.00%     63.75% # Class of committed instruction
system.cpu.commit.op_class_0::FloatDiv              0      0.00%     63.75% # Class of committed instruction
system.cpu.commit.op_class_0::FloatMisc             0      0.00%     63.75% # Class of committed instruction
system.cpu.commit.op_class_0::FloatSqrt             0      0.00%     63.75% # Class of committed instruction
system.cpu.commit.op_class_0::SimdAdd               0      0.00%     63.75% # Class of committed instruction
system.cpu.commit.op_class_0::SimdAddAcc            0      0.00%     63.75% # Class of committed instruction
system.cpu.commit.op_class_0::SimdAlu               2      0.00%     63.75% # Class of committed instruction
system.cpu.commit.op_class_0::SimdCmp               0      0.00%     63.75% # Class of committed instruction
system.cpu.commit.op_class_0::SimdCvt               8      0.00%     63.75% # Class of committed instruction
system.cpu.commit.op_class_0::SimdMisc             15      0.00%     63.75% # Class of committed instruction
system.cpu.commit.op_class_0::SimdMult              0      0.00%     63.75% # Class of committed instruction
system.cpu.commit.op_class_0::SimdMultAcc            0      0.00%     63.75% # Class of committed instruction
system.cpu.commit.op_class_0::SimdShift             0      0.00%     63.75% # Class of committed instruction
system.cpu.commit.op_class_0::SimdShiftAcc            0      0.00%     63.75% # Class of committed instruction
system.cpu.commit.op_class_0::SimdDiv               0      0.00%     63.75% # Class of committed instruction
system.cpu.commit.op_class_0::SimdSqrt              0      0.00%     63.75% # Class of committed instruction
system.cpu.commit.op_class_0::SimdFloatAdd            0      0.00%     63.75% # Class of committed instruction
system.cpu.commit.op_class_0::SimdFloatAlu            0      0.00%     63.75% # Class of committed instruction
system.cpu.commit.op_class_0::SimdFloatCmp            0      0.00%     63.75% # Class of committed instruction
system.cpu.commit.op_class_0::SimdFloatCvt            0      0.00%     63.75% # Class of committed instruction
system.cpu.commit.op_class_0::SimdFloatDiv            0      0.00%     63.75% # Class of committed instruction
system.cpu.commit.op_class_0::SimdFloatMisc            0      0.00%     63.75% # Class of committed instruction
system.cpu.commit.op_class_0::SimdFloatMult            0      0.00%     63.75% # Class of committed instruction
system.cpu.commit.op_class_0::SimdFloatMultAcc            0      0.00%     63.75% # Class of committed instruction
system.cpu.commit.op_class_0::SimdFloatSqrt            0      0.00%     63.75% # Class of committed instruction
system.cpu.commit.op_class_0::SimdReduceAdd            0      0.00%     63.75% # Class of committed instruction
system.cpu.commit.op_class_0::SimdReduceAlu            0      0.00%     63.75% # Class of committed instruction
system.cpu.commit.op_class_0::SimdReduceCmp            0      0.00%     63.75% # Class of committed instruction
system.cpu.commit.op_class_0::SimdFloatReduceAdd            0      0.00%     63.75% # Class of committed instruction
system.cpu.commit.op_class_0::SimdFloatReduceCmp            0      0.00%     63.75% # Class of committed instruction
system.cpu.commit.op_class_0::SimdAes               0      0.00%     63.75% # Class of committed instruction
system.cpu.commit.op_class_0::SimdAesMix            0      0.00%     63.75% # Class of committed instruction
system.cpu.commit.op_class_0::SimdSha1Hash            0      0.00%     63.75% # Class of committed instruction
system.cpu.commit.op_class_0::SimdSha1Hash2            0      0.00%     63.75% # Class of committed instruction
system.cpu.commit.op_class_0::SimdSha256Hash            0      0.00%     63.75% # Class of committed instruction
system.cpu.commit.op_class_0::SimdSha256Hash2            0      0.00%     63.75% # Class of committed instruction
system.cpu.commit.op_class_0::SimdShaSigma2            0      0.00%     63.75% # Class of committed instruction
system.cpu.commit.op_class_0::SimdShaSigma3            0      0.00%     63.75% # Class of committed instruction
system.cpu.commit.op_class_0::SimdPredAlu            0      0.00%     63.75% # Class of committed instruction
system.cpu.commit.op_class_0::MemRead         4021075     24.16%     87.91% # Class of committed instruction
system.cpu.commit.op_class_0::MemWrite        2011619     12.09%    100.00% # Class of committed instruction
system.cpu.commit.op_class_0::FloatMemRead           36      0.00%    100.00% # Class of committed instruction
system.cpu.commit.op_class_0::FloatMemWrite           32      0.00%    100.00% # Class of committed instruction
system.cpu.commit.op_class_0::IprAccess             0      0.00%    100.00% # Class of committed instruction
system.cpu.commit.op_class_0::InstPrefetch            0      0.00%    100.00% # Class of committed instruction
system.cpu.commit.op_class_0::total          16643973                       # Class of committed instruction
system.cpu.commit.refs                        6032762                       # Number of memory references committed
system.cpu.commit.swp_count                         0                       # Number of s/w prefetches committed
system.cpu.commit.vec_insts                         0                       # Number of committed Vector instructions.
system.cpu.committedInsts                     9078150                       # Number of Instructions Simulated
system.cpu.committedOps                      16643973                       # Number of Ops (including micro ops) Simulated
system.cpu.cpi                               7.315723                       # CPI: Cycles Per Instruction
system.cpu.cpi_total                         7.315723                       # CPI: Total CPI of All Threads
system.cpu.dcache.ReadReq_accesses::.cpu.data      2526665                       # number of ReadReq accesses(hits+misses)
system.cpu.dcache.ReadReq_accesses::total      2526665                       # number of ReadReq accesses(hits+misses)
system.cpu.dcache.ReadReq_avg_miss_latency::.cpu.data 108832.746103                       # average ReadReq miss latency
system.cpu.dcache.ReadReq_avg_miss_latency::total 108832.746103                       # average ReadReq miss latency
system.cpu.dcache.ReadReq_avg_mshr_miss_latency::.cpu.data 107091.890008                       # average ReadReq mshr miss latency
system.cpu.dcache.ReadReq_avg_mshr_miss_latency::total 107091.890008                       # average ReadReq mshr miss latency
system.cpu.dcache.ReadReq_hits::.cpu.data      2030551                       # number of ReadReq hits
system.cpu.dcache.ReadReq_hits::total         2030551                       # number of ReadReq hits
system.cpu.dcache.ReadReq_miss_latency::.cpu.data  53993449000                       # number of ReadReq miss cycles
system.cpu.dcache.ReadReq_miss_latency::total  53993449000                       # number of ReadReq miss cycles
system.cpu.dcache.ReadReq_miss_rate::.cpu.data     0.196351                       # miss rate for ReadReq accesses
system.cpu.dcache.ReadReq_miss_rate::total     0.196351                       # miss rate for ReadReq accesses
system.cpu.dcache.ReadReq_misses::.cpu.data       496114                       # number of ReadReq misses
system.cpu.dcache.ReadReq_misses::total        496114                       # number of ReadReq misses
system.cpu.dcache.ReadReq_mshr_hits::.cpu.data         2698                       # number of ReadReq MSHR hits
system.cpu.dcache.ReadReq_mshr_hits::total         2698                       # number of ReadReq MSHR hits
system.cpu.dcache.ReadReq_mshr_miss_latency::.cpu.data  52840852000                       # number of ReadReq MSHR miss cycles
system.cpu.dcache.ReadReq_mshr_miss_latency::total  52840852000                       # number of ReadReq MSHR miss cycles
system.cpu.dcache.ReadReq_mshr_miss_rate::.cpu.data     0.195284                       # mshr miss rate for ReadReq accesses
system.cpu.dcache.ReadReq_mshr_miss_rate::total     0.195284                       # mshr miss rate for ReadReq accesses
system.cpu.dcache.ReadReq_mshr_misses::.cpu.data       493416                       # number of ReadReq MSHR misses
system.cpu.dcache.ReadReq_mshr_misses::total       493416                       # number of ReadReq MSHR misses
system.cpu.dcache.WriteReq_accesses::.cpu.data      2011652                       # number of WriteReq accesses(hits+misses)
system.cpu.dcache.WriteReq_accesses::total      2011652                       # number of WriteReq accesses(hits+misses)
system.cpu.dcache.WriteReq_avg_miss_latency::.cpu.data 74800.414966                       # average WriteReq miss latency
system.cpu.dcache.WriteReq_avg_miss_latency::total 74800.414966                       # average WriteReq miss latency
system.cpu.dcache.WriteReq_avg_mshr_miss_latency::.cpu.data 72711.631579                       # average WriteReq mshr miss latency
system.cpu.dcache.WriteReq_avg_mshr_miss_latency::total 72711.631579                       # average WriteReq mshr miss latency
system.cpu.dcache.WriteReq_hits::.cpu.data      2011211                       # number of WriteReq hits
system.cpu.dcache.WriteReq_hits::total        2011211                       # number of WriteReq hits
system.cpu.dcache.WriteReq_miss_latency::.cpu.data     32986983                       # number of WriteReq miss cycles
system.cpu.dcache.WriteReq_miss_latency::total     32986983                       # number of WriteReq miss cycles
system.cpu.dcache.WriteReq_miss_rate::.cpu.data     0.000219                       # miss rate for WriteReq accesses
system.cpu.dcache.WriteReq_miss_rate::total     0.000219                       # miss rate for WriteReq accesses
system.cpu.dcache.WriteReq_misses::.cpu.data          441                       # number of WriteReq misses
system.cpu.dcache.WriteReq_misses::total          441                       # number of WriteReq misses
system.cpu.dcache.WriteReq_mshr_hits::.cpu.data            4                       # number of WriteReq MSHR hits
system.cpu.dcache.WriteReq_mshr_hits::total            4                       # number of WriteReq MSHR hits
system.cpu.dcache.WriteReq_mshr_miss_latency::.cpu.data     31774983                       # number of WriteReq MSHR miss cycles
system.cpu.dcache.WriteReq_mshr_miss_latency::total     31774983                       # number of WriteReq MSHR miss cycles
system.cpu.dcache.WriteReq_mshr_miss_rate::.cpu.data     0.000217                       # mshr miss rate for WriteReq accesses
system.cpu.dcache.WriteReq_mshr_miss_rate::total     0.000217                       # mshr miss rate for WriteReq accesses
system.cpu.dcache.WriteReq_mshr_misses::.cpu.data          437                       # number of WriteReq MSHR misses
system.cpu.dcache.WriteReq_mshr_misses::total          437                       # number of WriteReq MSHR misses
system.cpu.dcache.avg_blocked_cycles::no_mshrs    18.543253                       # average number of cycles each access was blocked
system.cpu.dcache.avg_blocked_cycles::no_targets          nan                       # average number of cycles each access was blocked
system.cpu.dcache.blocked::no_mshrs               289                       # number of cycles access was blocked
system.cpu.dcache.blocked::no_targets               0                       # number of cycles access was blocked
system.cpu.dcache.blocked_cycles::no_mshrs         5359                       # number of cycles access was blocked
system.cpu.dcache.blocked_cycles::no_targets            0                       # number of cycles access was blocked
system.cpu.dcache.demand_accesses::.cpu.data      4538317                       # number of demand (read+write) accesses
system.cpu.dcache.demand_accesses::total      4538317                       # number of demand (read+write) accesses
system.cpu.dcache.demand_avg_miss_latency::.cpu.data 108802.521338                       # average overall miss latency
system.cpu.dcache.demand_avg_miss_latency::total 108802.521338                       # average overall miss latency
system.cpu.dcache.demand_avg_mshr_miss_latency::.cpu.data 107061.467649                       # average overall mshr miss latency
system.cpu.dcache.demand_avg_mshr_miss_latency::total 107061.467649                       # average overall mshr miss latency
system.cpu.dcache.demand_hits::.cpu.data      4041762                       # number of demand (read+write) hits
system.cpu.dcache.demand_hits::total          4041762                       # number of demand (read+write) hits
system.cpu.dcache.demand_miss_latency::.cpu.data  54026435983                       # number of demand (read+write) miss cycles
system.cpu.dcache.demand_miss_latency::total  54026435983                       # number of demand (read+write) miss cycles
system.cpu.dcache.demand_miss_rate::.cpu.data     0.109414                       # miss rate for demand accesses
system.cpu.dcache.demand_miss_rate::total     0.109414                       # miss rate for demand accesses
system.cpu.dcache.demand_misses::.cpu.data       496555                       # number of demand (read+write) misses
system.cpu.dcache.demand_misses::total         496555                       # number of demand (read+write) misses
system.cpu.dcache.demand_mshr_hits::.cpu.data         2702                       # number of demand (read+write) MSHR hits
system.cpu.dcache.demand_mshr_hits::total         2702                       # number of demand (read+write) MSHR hits
system.cpu.dcache.demand_mshr_miss_latency::.cpu.data  52872626983                       # number of demand (read+write) MSHR miss cycles
system.cpu.dcache.demand_mshr_miss_latency::total  52872626983                       # number of demand (read+write) MSHR miss cycles
system.cpu.dcache.demand_mshr_miss_rate::.cpu.data     0.108819                       # mshr miss rate for demand accesses
system.cpu.dcache.demand_mshr_miss_rate::total     0.108819                       # mshr miss rate for demand accesses
system.cpu.dcache.demand_mshr_misses::.cpu.data       493853                       # number of demand (read+write) MSHR misses
system.cpu.dcache.demand_mshr_misses::total       493853                       # number of demand (read+write) MSHR misses
system.cpu.dcache.overall_accesses::.cpu.data      4538317                       # number of overall (read+write) accesses
system.cpu.dcache.overall_accesses::total      4538317                       # number of overall (read+write) accesses
system.cpu.dcache.overall_avg_miss_latency::.cpu.data 108802.521338                       # average overall miss latency
system.cpu.dcache.overall_avg_miss_latency::total 108802.521338                       # average overall miss latency
system.cpu.dcache.overall_avg_mshr_miss_latency::.cpu.data 107061.467649                       # average overall mshr miss latency
system.cpu.dcache.overall_avg_mshr_miss_latency::total 107061.467649                       # average overall mshr miss latency
system.cpu.dcache.overall_hits::.cpu.data      4041762                       # number of overall hits
system.cpu.dcache.overall_hits::total         4041762                       # number of overall hits
system.cpu.dcache.overall_miss_latency::.cpu.data  54026435983                       # number of overall miss cycles
system.cpu.dcache.overall_miss_latency::total  54026435983                       # number of overall miss cycles
system.cpu.dcache.overall_miss_rate::.cpu.data     0.109414                       # miss rate for overall accesses
system.cpu.dcache.overall_miss_rate::total     0.109414                       # miss rate for overall accesses
system.cpu.dcache.overall_misses::.cpu.data       496555                       # number of overall misses
system.cpu.dcache.overall_misses::total        496555                       # number of overall misses
system.cpu.dcache.overall_mshr_hits::.cpu.data         2702                       # number of overall MSHR hits
system.cpu.dcache.overall_mshr_hits::total         2702                       # number of overall MSHR hits
system.cpu.dcache.overall_mshr_miss_latency::.cpu.data  52872626983                       # number of overall MSHR miss cycles
system.cpu.dcache.overall_mshr_miss_latency::total  52872626983                       # number of overall MSHR miss cycles
system.cpu.dcache.overall_mshr_miss_rate::.cpu.data     0.108819                       # mshr miss rate for overall accesses
system.cpu.dcache.overall_mshr_miss_rate::total     0.108819                       # mshr miss rate for overall accesses
system.cpu.dcache.overall_mshr_misses::.cpu.data       493853                       # number of overall MSHR misses
system.cpu.dcache.overall_mshr_misses::total       493853                       # number of overall MSHR misses
system.cpu.dcache.pwrStateResidencyTicks::UNDEFINED  66413234000                       # Cumulative time (in ticks) in various power states
system.cpu.dcache.replacements                 492829                       # number of replacements
system.cpu.dcache.tags.age_task_id_blocks_1024::0          105                       # Occupied blocks per task id
system.cpu.dcache.tags.age_task_id_blocks_1024::1          536                       # Occupied blocks per task id
system.cpu.dcache.tags.age_task_id_blocks_1024::2          382                       # Occupied blocks per task id
system.cpu.dcache.tags.age_task_id_blocks_1024::4            1                       # Occupied blocks per task id
system.cpu.dcache.tags.avg_refs              9.184140                       # Average number of references to valid blocks.
system.cpu.dcache.tags.data_accesses          9570487                       # Number of data accesses
system.cpu.dcache.tags.occ_blocks::.cpu.data  1023.049532                       # Average occupied blocks per requestor
system.cpu.dcache.tags.occ_percent::.cpu.data     0.999072                       # Average percentage of cache occupancy
system.cpu.dcache.tags.occ_percent::total     0.999072                       # Average percentage of cache occupancy
system.cpu.dcache.tags.occ_task_id_blocks::1024         1024                       # Occupied blocks per task id
system.cpu.dcache.tags.occ_task_id_percent::1024            1                       # Percentage of cache occupancy per task id
system.cpu.dcache.tags.pwrStateResidencyTicks::UNDEFINED  66413234000                       # Cumulative time (in ticks) in various power states
system.cpu.dcache.tags.sampled_refs            493853                       # Sample count of references to valid blocks.
system.cpu.dcache.tags.tag_accesses           9570487                       # Number of tag accesses
system.cpu.dcache.tags.tagsinuse          1023.049532                       # Cycle average of tags in use
system.cpu.dcache.tags.total_refs             4535615                       # Total number of references to valid blocks.
system.cpu.dcache.tags.warmup_cycle            244000                       # Cycle when the warmup percentage was hit.
system.cpu.dcache.writebacks::.writebacks          542                       # number of writebacks
system.cpu.dcache.writebacks::total               542                       # number of writebacks
system.cpu.decode.BlockedCycles              63566742                       # Number of cycles decode is blocked
system.cpu.decode.DecodedInsts               16773523                       # Number of instructions handled by decode
system.cpu.decode.IdleCycles                   718548                       # Number of cycles decode is idle
system.cpu.decode.RunCycles                     32909                       # Number of cycles decode is running
system.cpu.decode.SquashCycles                   2951                       # Number of cycles decode is squashing
system.cpu.decode.UnblockCycles               2069460                       # Number of cycles decode is unblocking
system.cpu.dtb.rdAccesses                     4029416                       # TLB accesses on read requests
system.cpu.dtb.rdMisses                        440199                       # TLB misses on read requests
system.cpu.dtb.walker.pwrStateResidencyTicks::UNDEFINED  66413234000                       # Cumulative time (in ticks) in various power states
system.cpu.dtb.wrAccesses                     2015262                       # TLB accesses on write requests
system.cpu.dtb.wrMisses                           112                       # TLB misses on write requests
system.cpu.dtb_walker_cache.avg_blocked_cycles::no_mshrs          nan                       # average number of cycles each access was blocked
system.cpu.dtb_walker_cache.avg_blocked_cycles::no_targets          nan                       # average number of cycles each access was blocked
system.cpu.dtb_walker_cache.blocked::no_mshrs            0                       # number of cycles access was blocked
system.cpu.dtb_walker_cache.blocked::no_targets            0                       # number of cycles access was blocked
system.cpu.dtb_walker_cache.blocked_cycles::no_mshrs            0                       # number of cycles access was blocked
system.cpu.dtb_walker_cache.blocked_cycles::no_targets            0                       # number of cycles access was blocked
system.cpu.dtb_walker_cache.pwrStateResidencyTicks::UNDEFINED  66413234000                       # Cumulative time (in ticks) in various power states
system.cpu.dtb_walker_cache.replacements            0                       # number of replacements
system.cpu.dtb_walker_cache.tags.avg_refs          nan                       # Average number of references to valid blocks.
system.cpu.dtb_walker_cache.tags.data_accesses            0                       # Number of data accesses
system.cpu.dtb_walker_cache.tags.pwrStateResidencyTicks::UNDEFINED  66413234000                       # Cumulative time (in ticks) in various power states
system.cpu.dtb_walker_cache.tags.sampled_refs            0                       # Sample count of references to valid blocks.
system.cpu.dtb_walker_cache.tags.tag_accesses            0                       # Number of tag accesses
system.cpu.dtb_walker_cache.tags.tagsinuse            0                       # Cycle average of tags in use
system.cpu.dtb_walker_cache.tags.total_refs            0                       # Total number of references to valid blocks.
system.cpu.dtb_walker_cache.tags.warmup_cycle            0                       # Cycle when the warmup percentage was hit.
system.cpu.fetch.Branches                      535219                       # Number of branches that fetch encountered
system.cpu.fetch.CacheLines                   1018605                       # Number of cache lines fetched
system.cpu.fetch.Cycles                      65350334                       # Number of cycles fetch has run and was not squashing or blocked
system.cpu.fetch.IcacheSquashes                  1143                       # Number of outstanding Icache misses that were squashed
system.cpu.fetch.IcacheWaitRetryStallCycles            2                       # Number of stall cycles due to full MSHR
system.cpu.fetch.Insts                        9164939                       # Number of instructions fetch has processed
system.cpu.fetch.MiscStallCycles                   21                       # Number of cycles fetch has spent waiting on interrupts, or bad addresses, or out of MSHRs
system.cpu.fetch.PendingQuiesceStallCycles            6                       # Number of stall cycles due to pending quiesce instructions
system.cpu.fetch.PendingTrapStallCycles           305                       # Number of stall cycles due to pending traps
system.cpu.fetch.SquashCycles                    5902                       # Number of cycles fetch has spent squashing
system.cpu.fetch.branchRate                  0.008059                       # Number of branch fetches per cycle
system.cpu.fetch.icacheStallCycles            1036991                       # Number of cycles fetch is stalled on an Icache miss
system.cpu.fetch.predictedBranches             514619                       # Number of branches that fetch has predicted taken
system.cpu.fetch.rate                        0.137999                       # Number of inst fetches per cycle
system.cpu.fetch.rateDist::samples           66390610                       # Number of instructions fetched each cycle (Total)
system.cpu.fetch.rateDist::mean              0.253047                       # Number of instructions fetched each cycle (Total)
system.cpu.fetch.rateDist::stdev             1.287936                       # Number of instructions fetched each cycle (Total)
system.cpu.fetch.rateDist::underflows               0      0.00%      0.00% # Number of instructions fetched each cycle (Total)
system.cpu.fetch.rateDist::0                 63466669     95.60%     95.60% # Number of instructions fetched each cycle (Total)
system.cpu.fetch.rateDist::1                   253203      0.38%     95.98% # Number of instructions fetched each cycle (Total)
system.cpu.fetch.rateDist::2                   189694      0.29%     96.26% # Number of instructions fetched each cycle (Total)
system.cpu.fetch.rateDist::3                   192377      0.29%     96.55% # Number of instructions fetched each cycle (Total)
system.cpu.fetch.rateDist::4                   254545      0.38%     96.94% # Number of instructions fetched each cycle (Total)
system.cpu.fetch.rateDist::5                   439781      0.66%     97.60% # Number of instructions fetched each cycle (Total)
system.cpu.fetch.rateDist::6                   127186      0.19%     97.79% # Number of instructions fetched each cycle (Total)
system.cpu.fetch.rateDist::7                   127249      0.19%     97.98% # Number of instructions fetched each cycle (Total)
system.cpu.fetch.rateDist::8                  1339906      2.02%    100.00% # Number of instructions fetched each cycle (Total)
system.cpu.fetch.rateDist::overflows                0      0.00%    100.00% # Number of instructions fetched each cycle (Total)
system.cpu.fetch.rateDist::min_value                0                       # Number of instructions fetched each cycle (Total)
system.cpu.fetch.rateDist::max_value                8                       # Number of instructions fetched each cycle (Total)
system.cpu.fetch.rateDist::total             66390610                       # Number of instructions fetched each cycle (Total)
system.cpu.fp_regfile_reads                       147                       # number of floating regfile reads
system.cpu.fp_regfile_writes                       83                       # number of floating regfile writes
system.cpu.icache.ReadReq_accesses::.cpu.inst      1018605                       # number of ReadReq accesses(hits+misses)
system.cpu.icache.ReadReq_accesses::total      1018605                       # number of ReadReq accesses(hits+misses)
system.cpu.icache.ReadReq_avg_miss_latency::.cpu.inst 64893.597836                       # average ReadReq miss latency
system.cpu.icache.ReadReq_avg_miss_latency::total 64893.597836                       # average ReadReq miss latency
system.cpu.icache.ReadReq_avg_mshr_miss_latency::.cpu.inst 66192.134831                       # average ReadReq mshr miss latency
system.cpu.icache.ReadReq_avg_mshr_miss_latency::total 66192.134831                       # average ReadReq mshr miss latency
system.cpu.icache.ReadReq_hits::.cpu.inst      1017496                       # number of ReadReq hits
system.cpu.icache.ReadReq_hits::total         1017496                       # number of ReadReq hits
system.cpu.icache.ReadReq_miss_latency::.cpu.inst     71967000                       # number of ReadReq miss cycles
system.cpu.icache.ReadReq_miss_latency::total     71967000                       # number of ReadReq miss cycles
system.cpu.icache.ReadReq_miss_rate::.cpu.inst     0.001089                       # miss rate for ReadReq accesses
system.cpu.icache.ReadReq_miss_rate::total     0.001089                       # miss rate for ReadReq accesses
system.cpu.icache.ReadReq_misses::.cpu.inst         1109                       # number of ReadReq misses
system.cpu.icache.ReadReq_misses::total          1109                       # number of ReadReq misses
system.cpu.icache.ReadReq_mshr_hits::.cpu.inst          219                       # number of ReadReq MSHR hits
system.cpu.icache.ReadReq_mshr_hits::total          219                       # number of ReadReq MSHR hits
system.cpu.icache.ReadReq_mshr_miss_latency::.cpu.inst     58911000                       # number of ReadReq MSHR miss cycles
system.cpu.icache.ReadReq_mshr_miss_latency::total     58911000                       # number of ReadReq MSHR miss cycles
system.cpu.icache.ReadReq_mshr_miss_rate::.cpu.inst     0.000874                       # mshr miss rate for ReadReq accesses
system.cpu.icache.ReadReq_mshr_miss_rate::total     0.000874                       # mshr miss rate for ReadReq accesses
system.cpu.icache.ReadReq_mshr_misses::.cpu.inst          890                       # number of ReadReq MSHR misses
system.cpu.icache.ReadReq_mshr_misses::total          890                       # number of ReadReq MSHR misses
system.cpu.icache.avg_blocked_cycles::no_mshrs           10                       # average number of cycles each access was blocked
system.cpu.icache.avg_blocked_cycles::no_targets          nan                       # average number of cycles each access was blocked
system.cpu.icache.blocked::no_mshrs                 2                       # number of cycles access was blocked
system.cpu.icache.blocked::no_targets               0                       # number of cycles access was blocked
system.cpu.icache.blocked_cycles::no_mshrs           20                       # number of cycles access was blocked
system.cpu.icache.blocked_cycles::no_targets            0                       # number of cycles access was blocked
system.cpu.icache.demand_accesses::.cpu.inst      1018605                       # number of demand (read+write) accesses
system.cpu.icache.demand_accesses::total      1018605                       # number of demand (read+write) accesses
system.cpu.icache.demand_avg_miss_latency::.cpu.inst 64893.597836                       # average overall miss latency
system.cpu.icache.demand_avg_miss_latency::total 64893.597836                       # average overall miss latency
system.cpu.icache.demand_avg_mshr_miss_latency::.cpu.inst 66192.134831                       # average overall mshr miss latency
system.cpu.icache.demand_avg_mshr_miss_latency::total 66192.134831                       # average overall mshr miss latency
system.cpu.icache.demand_hits::.cpu.inst      1017496                       # number of demand (read+write) hits
system.cpu.icache.demand_hits::total          1017496                       # number of demand (read+write) hits
system.cpu.icache.demand_miss_latency::.cpu.inst     71967000                       # number of demand (read+write) miss cycles
system.cpu.icache.demand_miss_latency::total     71967000                       # number of demand (read+write) miss cycles
system.cpu.icache.demand_miss_rate::.cpu.inst     0.001089                       # miss rate for demand accesses
system.cpu.icache.demand_miss_rate::total     0.001089                       # miss rate for demand accesses
system.cpu.icache.demand_misses::.cpu.inst         1109                       # number of demand (read+write) misses
system.cpu.icache.demand_misses::total           1109                       # number of demand (read+write) misses
system.cpu.icache.demand_mshr_hits::.cpu.inst          219                       # number of demand (read+write) MSHR hits
system.cpu.icache.demand_mshr_hits::total          219                       # number of demand (read+write) MSHR hits
system.cpu.icache.demand_mshr_miss_latency::.cpu.inst     58911000                       # number of demand (read+write) MSHR miss cycles
system.cpu.icache.demand_mshr_miss_latency::total     58911000                       # number of demand (read+write) MSHR miss cycles
system.cpu.icache.demand_mshr_miss_rate::.cpu.inst     0.000874                       # mshr miss rate for demand accesses
system.cpu.icache.demand_mshr_miss_rate::total     0.000874                       # mshr miss rate for demand accesses
system.cpu.icache.demand_mshr_misses::.cpu.inst          890                       # number of demand (read+write) MSHR misses
system.cpu.icache.demand_mshr_misses::total          890                       # number of demand (read+write) MSHR misses
system.cpu.icache.overall_accesses::.cpu.inst      1018605                       # number of overall (read+write) accesses
system.cpu.icache.overall_accesses::total      1018605                       # number of overall (read+write) accesses
system.cpu.icache.overall_avg_miss_latency::.cpu.inst 64893.597836                       # average overall miss latency
system.cpu.icache.overall_avg_miss_latency::total 64893.597836                       # average overall miss latency
system.cpu.icache.overall_avg_mshr_miss_latency::.cpu.inst 66192.134831                       # average overall mshr miss latency
system.cpu.icache.overall_avg_mshr_miss_latency::total 66192.134831                       # average overall mshr miss latency
system.cpu.icache.overall_hits::.cpu.inst      1017496                       # number of overall hits
system.cpu.icache.overall_hits::total         1017496                       # number of overall hits
system.cpu.icache.overall_miss_latency::.cpu.inst     71967000                       # number of overall miss cycles
system.cpu.icache.overall_miss_latency::total     71967000                       # number of overall miss cycles
system.cpu.icache.overall_miss_rate::.cpu.inst     0.001089                       # miss rate for overall accesses
system.cpu.icache.overall_miss_rate::total     0.001089                       # miss rate for overall accesses
system.cpu.icache.overall_misses::.cpu.inst         1109                       # number of overall misses
system.cpu.icache.overall_misses::total          1109                       # number of overall misses
system.cpu.icache.overall_mshr_hits::.cpu.inst          219                       # number of overall MSHR hits
system.cpu.icache.overall_mshr_hits::total          219                       # number of overall MSHR hits
system.cpu.icache.overall_mshr_miss_latency::.cpu.inst     58911000                       # number of overall MSHR miss cycles
system.cpu.icache.overall_mshr_miss_latency::total     58911000                       # number of overall MSHR miss cycles
system.cpu.icache.overall_mshr_miss_rate::.cpu.inst     0.000874                       # mshr miss rate for overall accesses
system.cpu.icache.overall_mshr_miss_rate::total     0.000874                       # mshr miss rate for overall accesses
system.cpu.icache.overall_mshr_misses::.cpu.inst          890                       # number of overall MSHR misses
system.cpu.icache.overall_mshr_misses::total          890                       # number of overall MSHR misses
system.cpu.icache.pwrStateResidencyTicks::UNDEFINED  66413234000                       # Cumulative time (in ticks) in various power states
system.cpu.icache.replacements                    634                       # number of replacements
system.cpu.icache.tags.age_task_id_blocks_1024::0           48                       # Occupied blocks per task id
system.cpu.icache.tags.age_task_id_blocks_1024::4          208                       # Occupied blocks per task id
system.cpu.icache.tags.avg_refs           1144.253933                       # Average number of references to valid blocks.
system.cpu.icache.tags.data_accesses          2038100                       # Number of data accesses
system.cpu.icache.tags.occ_blocks::.cpu.inst   255.944823                       # Average occupied blocks per requestor
system.cpu.icache.tags.occ_percent::.cpu.inst     0.999784                       # Average percentage of cache occupancy
system.cpu.icache.tags.occ_percent::total     0.999784                       # Average percentage of cache occupancy
system.cpu.icache.tags.occ_task_id_blocks::1024          256                       # Occupied blocks per task id
system.cpu.icache.tags.occ_task_id_percent::1024            1                       # Percentage of cache occupancy per task id
system.cpu.icache.tags.pwrStateResidencyTicks::UNDEFINED  66413234000                       # Cumulative time (in ticks) in various power states
system.cpu.icache.tags.sampled_refs               890                       # Sample count of references to valid blocks.
system.cpu.icache.tags.tag_accesses           2038100                       # Number of tag accesses
system.cpu.icache.tags.tagsinuse           255.944823                       # Cycle average of tags in use
system.cpu.icache.tags.total_refs             1018386                       # Total number of references to valid blocks.
system.cpu.icache.tags.warmup_cycle            108000                       # Cycle when the warmup percentage was hit.
system.cpu.icache.writebacks::.writebacks          634                       # number of writebacks
system.cpu.icache.writebacks::total               634                       # number of writebacks
system.cpu.idleCycles                           22625                       # Total number of cycles that the CPU has spent unscheduled due to idling
system.cpu.iew.branchMispredicts                 3493                       # Number of branch mispredicts detected at execute
system.cpu.iew.exec_branches                   520390                       # Number of branches executed
system.cpu.iew.exec_nop                             0                       # number of nop insts executed
system.cpu.iew.exec_rate                     0.251462                       # Inst execution rate
system.cpu.iew.exec_refs                      6045668                       # number of memory reference insts executed
system.cpu.iew.exec_stores                    2015261                       # Number of stores executed
system.cpu.iew.exec_swp                             0                       # number of swp insts executed
system.cpu.iew.iewBlockCycles                52280736                       # Number of cycles IEW is blocking
system.cpu.iew.iewDispLoadInsts               4036118                       # Number of dispatched load instructions
system.cpu.iew.iewDispNonSpecInsts                 54                       # Number of dispatched non-speculative instructions
system.cpu.iew.iewDispSquashedInsts               134                       # Number of squashed instructions skipped by dispatch
system.cpu.iew.iewDispStoreInsts              2018100                       # Number of dispatched store instructions
system.cpu.iew.iewDispatchedInsts            16741986                       # Number of instructions dispatched to IQ
system.cpu.iew.iewExecLoadInsts               4030407                       # Number of load instructions executed
system.cpu.iew.iewExecSquashedInsts              5739                       # Number of squashed instructions skipped in execute
system.cpu.iew.iewExecutedInsts              16700398                       # Number of executed instructions
system.cpu.iew.iewIQFullEvents                    221                       # Number of times the IQ has become full, causing a stall
system.cpu.iew.iewIdleCycles                        0                       # Number of cycles IEW is idle
system.cpu.iew.iewLSQFullEvents                  2476                       # Number of times the LSQ has become full, causing a stall
system.cpu.iew.iewSquashCycles                   2951                       # Number of cycles IEW is squashing
system.cpu.iew.iewUnblockCycles                  2836                       # Number of cycles IEW is unblocking
system.cpu.iew.lsq.thread0.blockedLoads             0                       # Number of blocked loads due to partial load-store forwarding
system.cpu.iew.lsq.thread0.cacheBlocked           267                       # Number of times an access to memory failed due to the cache being blocked
system.cpu.iew.lsq.thread0.forwLoads          1502341                       # Number of loads that had data forwarded from stores
system.cpu.iew.lsq.thread0.ignoredResponses           55                       # Number of memory responses ignored because the instruction is squashed
system.cpu.iew.lsq.thread0.invAddrLoads             0                       # Number of loads ignored due to an invalid address
system.cpu.iew.lsq.thread0.invAddrSwpfs             0                       # Number of software prefetches ignored due to an invalid address
system.cpu.iew.lsq.thread0.memOrderViolation          165                       # Number of memory ordering violations
system.cpu.iew.lsq.thread0.rescheduledLoads            1                       # Number of loads that were rescheduled
system.cpu.iew.lsq.thread0.squashedLoads        15007                       # Number of loads squashed
system.cpu.iew.lsq.thread0.squashedStores         6449                       # Number of stores squashed
system.cpu.iew.memOrderViolationEvents            165                       # Number of memory order violations
system.cpu.iew.predictedNotTakenIncorrect         2597                       # Number of branches that were predicted not taken incorrectly
system.cpu.iew.predictedTakenIncorrect            896                       # Number of branches that were predicted taken incorrectly
system.cpu.iew.wb_consumers                  17172762                       # num instructions consuming a value
system.cpu.iew.wb_count                      16696333                       # cumulative count of insts written-back
system.cpu.iew.wb_fanout                     0.703295                       # average fanout of values written-back
system.cpu.iew.wb_producers                  12077511                       # num instructions producing a value
system.cpu.iew.wb_rate                       0.251401                       # insts written-back per cycle
system.cpu.iew.wb_sent                       16697708                       # cumulative count of insts sent to commit
system.cpu.int_regfile_reads                 27796171                       # number of integer regfile reads
system.cpu.int_regfile_writes                14162950                       # number of integer regfile writes
system.cpu.interrupts.pwrStateResidencyTicks::UNDEFINED  66413234000                       # Cumulative time (in ticks) in various power states
system.cpu.ipc                               0.136692                       # IPC: Instructions Per Cycle
system.cpu.ipc_total                         0.136692                       # IPC: Total IPC of All Threads
system.cpu.iq.FU_type_0::No_OpClass              4152      0.02%      0.02% # Type of FU issued
system.cpu.iq.FU_type_0::IntAlu              10653010     63.77%     63.79% # Type of FU issued
system.cpu.iq.FU_type_0::IntMult                   36      0.00%     63.79% # Type of FU issued
system.cpu.iq.FU_type_0::IntDiv                  1364      0.01%     63.80% # Type of FU issued
system.cpu.iq.FU_type_0::FloatAdd                   9      0.00%     63.80% # Type of FU issued
system.cpu.iq.FU_type_0::FloatCmp                   0      0.00%     63.80% # Type of FU issued
system.cpu.iq.FU_type_0::FloatCvt                  16      0.00%     63.80% # Type of FU issued
system.cpu.iq.FU_type_0::FloatMult                  0      0.00%     63.80% # Type of FU issued
system.cpu.iq.FU_type_0::FloatMultAcc               0      0.00%     63.80% # Type of FU issued
system.cpu.iq.FU_type_0::FloatDiv                   0      0.00%     63.80% # Type of FU issued
system.cpu.iq.FU_type_0::FloatMisc                  0      0.00%     63.80% # Type of FU issued
system.cpu.iq.FU_type_0::FloatSqrt                  0      0.00%     63.80% # Type of FU issued
system.cpu.iq.FU_type_0::SimdAdd                    0      0.00%     63.80% # Type of FU issued
system.cpu.iq.FU_type_0::SimdAddAcc                 0      0.00%     63.80% # Type of FU issued
system.cpu.iq.FU_type_0::SimdAlu                    2      0.00%     63.80% # Type of FU issued
system.cpu.iq.FU_type_0::SimdCmp                    0      0.00%     63.80% # Type of FU issued
system.cpu.iq.FU_type_0::SimdCvt                   16      0.00%     63.80% # Type of FU issued
system.cpu.iq.FU_type_0::SimdMisc                  23      0.00%     63.80% # Type of FU issued
system.cpu.iq.FU_type_0::SimdMult                   0      0.00%     63.80% # Type of FU issued
system.cpu.iq.FU_type_0::SimdMultAcc                0      0.00%     63.80% # Type of FU issued
system.cpu.iq.FU_type_0::SimdShift                  0      0.00%     63.80% # Type of FU issued
system.cpu.iq.FU_type_0::SimdShiftAcc               0      0.00%     63.80% # Type of FU issued
system.cpu.iq.FU_type_0::SimdDiv                    0      0.00%     63.80% # Type of FU issued
system.cpu.iq.FU_type_0::SimdSqrt                   0      0.00%     63.80% # Type of FU issued
system.cpu.iq.FU_type_0::SimdFloatAdd               0      0.00%     63.80% # Type of FU issued
system.cpu.iq.FU_type_0::SimdFloatAlu               0      0.00%     63.80% # Type of FU issued
system.cpu.iq.FU_type_0::SimdFloatCmp               0      0.00%     63.80% # Type of FU issued
system.cpu.iq.FU_type_0::SimdFloatCvt               0      0.00%     63.80% # Type of FU issued
system.cpu.iq.FU_type_0::SimdFloatDiv               0      0.00%     63.80% # Type of FU issued
system.cpu.iq.FU_type_0::SimdFloatMisc              0      0.00%     63.80% # Type of FU issued
system.cpu.iq.FU_type_0::SimdFloatMult              0      0.00%     63.80% # Type of FU issued
system.cpu.iq.FU_type_0::SimdFloatMultAcc            0      0.00%     63.80% # Type of FU issued
system.cpu.iq.FU_type_0::SimdFloatSqrt              0      0.00%     63.80% # Type of FU issued
system.cpu.iq.FU_type_0::SimdReduceAdd              0      0.00%     63.80% # Type of FU issued
system.cpu.iq.FU_type_0::SimdReduceAlu              0      0.00%     63.80% # Type of FU issued
system.cpu.iq.FU_type_0::SimdReduceCmp              0      0.00%     63.80% # Type of FU issued
system.cpu.iq.FU_type_0::SimdFloatReduceAdd            0      0.00%     63.80% # Type of FU issued
system.cpu.iq.FU_type_0::SimdFloatReduceCmp            0      0.00%     63.80% # Type of FU issued
system.cpu.iq.FU_type_0::SimdAes                    0      0.00%     63.80% # Type of FU issued
system.cpu.iq.FU_type_0::SimdAesMix                 0      0.00%     63.80% # Type of FU issued
system.cpu.iq.FU_type_0::SimdSha1Hash               0      0.00%     63.80% # Type of FU issued
system.cpu.iq.FU_type_0::SimdSha1Hash2              0      0.00%     63.80% # Type of FU issued
system.cpu.iq.FU_type_0::SimdSha256Hash             0      0.00%     63.80% # Type of FU issued
system.cpu.iq.FU_type_0::SimdSha256Hash2            0      0.00%     63.80% # Type of FU issued
system.cpu.iq.FU_type_0::SimdShaSigma2              0      0.00%     63.80% # Type of FU issued
system.cpu.iq.FU_type_0::SimdShaSigma3              0      0.00%     63.80% # Type of FU issued
system.cpu.iq.FU_type_0::SimdPredAlu                0      0.00%     63.80% # Type of FU issued
system.cpu.iq.FU_type_0::MemRead              4031632     24.13%     87.93% # Type of FU issued
system.cpu.iq.FU_type_0::MemWrite             2015805     12.07%    100.00% # Type of FU issued
system.cpu.iq.FU_type_0::FloatMemRead              40      0.00%    100.00% # Type of FU issued
system.cpu.iq.FU_type_0::FloatMemWrite             32      0.00%    100.00% # Type of FU issued
system.cpu.iq.FU_type_0::IprAccess                  0      0.00%    100.00% # Type of FU issued
system.cpu.iq.FU_type_0::InstPrefetch               0      0.00%    100.00% # Type of FU issued
system.cpu.iq.FU_type_0::total               16706137                       # Type of FU issued
system.cpu.iq.fp_alu_accesses                     155                       # Number of floating point alu accesses
system.cpu.iq.fp_inst_queue_reads                 302                       # Number of floating instruction queue reads
system.cpu.iq.fp_inst_queue_wakeup_accesses          147                       # Number of floating instruction queue wakeup accesses
system.cpu.iq.fp_inst_queue_writes                171                       # Number of floating instruction queue writes
system.cpu.iq.fu_busy_cnt                        2296                       # FU busy when requested
system.cpu.iq.fu_busy_rate                   0.000137                       # FU busy rate (busy events/executed inst)
system.cpu.iq.fu_full::No_OpClass                   0      0.00%      0.00% # attempts to use FU when none available
system.cpu.iq.fu_full::IntAlu                    1352     58.89%     58.89% # attempts to use FU when none available
system.cpu.iq.fu_full::IntMult                      0      0.00%     58.89% # attempts to use FU when none available
system.cpu.iq.fu_full::IntDiv                       0      0.00%     58.89% # attempts to use FU when none available
system.cpu.iq.fu_full::FloatAdd                     0      0.00%     58.89% # attempts to use FU when none available
system.cpu.iq.fu_full::FloatCmp                     0      0.00%     58.89% # attempts to use FU when none available
system.cpu.iq.fu_full::FloatCvt                     0      0.00%     58.89% # attempts to use FU when none available
system.cpu.iq.fu_full::FloatMult                    0      0.00%     58.89% # attempts to use FU when none available
system.cpu.iq.fu_full::FloatMultAcc                 0      0.00%     58.89% # attempts to use FU when none available
system.cpu.iq.fu_full::FloatDiv                     0      0.00%     58.89% # attempts to use FU when none available
system.cpu.iq.fu_full::FloatMisc                    0      0.00%     58.89% # attempts to use FU when none available
system.cpu.iq.fu_full::FloatSqrt                    0      0.00%     58.89% # attempts to use FU when none available
system.cpu.iq.fu_full::SimdAdd                      0      0.00%     58.89% # attempts to use FU when none available
system.cpu.iq.fu_full::SimdAddAcc                   0      0.00%     58.89% # attempts to use FU when none available
system.cpu.iq.fu_full::SimdAlu                      0      0.00%     58.89% # attempts to use FU when none available
system.cpu.iq.fu_full::SimdCmp                      0      0.00%     58.89% # attempts to use FU when none available
system.cpu.iq.fu_full::SimdCvt                      0      0.00%     58.89% # attempts to use FU when none available
system.cpu.iq.fu_full::SimdMisc                     0      0.00%     58.89% # attempts to use FU when none available
system.cpu.iq.fu_full::SimdMult                     0      0.00%     58.89% # attempts to use FU when none available
system.cpu.iq.fu_full::SimdMultAcc                  0      0.00%     58.89% # attempts to use FU when none available
system.cpu.iq.fu_full::SimdShift                    0      0.00%     58.89% # attempts to use FU when none available
system.cpu.iq.fu_full::SimdShiftAcc                 0      0.00%     58.89% # attempts to use FU when none available
system.cpu.iq.fu_full::SimdDiv                      0      0.00%     58.89% # attempts to use FU when none available
system.cpu.iq.fu_full::SimdSqrt                     0      0.00%     58.89% # attempts to use FU when none available
system.cpu.iq.fu_full::SimdFloatAdd                 0      0.00%     58.89% # attempts to use FU when none available
system.cpu.iq.fu_full::SimdFloatAlu                 0      0.00%     58.89% # attempts to use FU when none available
system.cpu.iq.fu_full::SimdFloatCmp                 0      0.00%     58.89% # attempts to use FU when none available
system.cpu.iq.fu_full::SimdFloatCvt                 0      0.00%     58.89% # attempts to use FU when none available
system.cpu.iq.fu_full::SimdFloatDiv                 0      0.00%     58.89% # attempts to use FU when none available
system.cpu.iq.fu_full::SimdFloatMisc                0      0.00%     58.89% # attempts to use FU when none available
system.cpu.iq.fu_full::SimdFloatMult                0      0.00%     58.89% # attempts to use FU when none available
system.cpu.iq.fu_full::SimdFloatMultAcc             0      0.00%     58.89% # attempts to use FU when none available
system.cpu.iq.fu_full::SimdFloatSqrt                0      0.00%     58.89% # attempts to use FU when none available
system.cpu.iq.fu_full::SimdReduceAdd                0      0.00%     58.89% # attempts to use FU when none available
system.cpu.iq.fu_full::SimdReduceAlu                0      0.00%     58.89% # attempts to use FU when none available
system.cpu.iq.fu_full::SimdReduceCmp                0      0.00%     58.89% # attempts to use FU when none available
system.cpu.iq.fu_full::SimdFloatReduceAdd            0      0.00%     58.89% # attempts to use FU when none available
system.cpu.iq.fu_full::SimdFloatReduceCmp            0      0.00%     58.89% # attempts to use FU when none available
system.cpu.iq.fu_full::SimdAes                      0      0.00%     58.89% # attempts to use FU when none available
system.cpu.iq.fu_full::SimdAesMix                   0      0.00%     58.89% # attempts to use FU when none available
system.cpu.iq.fu_full::SimdSha1Hash                 0      0.00%     58.89% # attempts to use FU when none available
system.cpu.iq.fu_full::SimdSha1Hash2                0      0.00%     58.89% # attempts to use FU when none available
system.cpu.iq.fu_full::SimdSha256Hash               0      0.00%     58.89% # attempts to use FU when none available
system.cpu.iq.fu_full::SimdSha256Hash2              0      0.00%     58.89% # attempts to use FU when none available
system.cpu.iq.fu_full::SimdShaSigma2                0      0.00%     58.89% # attempts to use FU when none available
system.cpu.iq.fu_full::SimdShaSigma3                0      0.00%     58.89% # attempts to use FU when none available
system.cpu.iq.fu_full::SimdPredAlu                  0      0.00%     58.89% # attempts to use FU when none available
system.cpu.iq.fu_full::MemRead                    509     22.17%     81.05% # attempts to use FU when none available
system.cpu.iq.fu_full::MemWrite                   427     18.60%     99.65% # attempts to use FU when none available
system.cpu.iq.fu_full::FloatMemRead                 5      0.22%     99.87% # attempts to use FU when none available
system.cpu.iq.fu_full::FloatMemWrite                3      0.13%    100.00% # attempts to use FU when none available
system.cpu.iq.fu_full::IprAccess                    0      0.00%    100.00% # attempts to use FU when none available
system.cpu.iq.fu_full::InstPrefetch                 0      0.00%    100.00% # attempts to use FU when none available
system.cpu.iq.int_alu_accesses               16704126                       # Number of integer alu accesses
system.cpu.iq.int_inst_queue_reads           99805299                       # Number of integer instruction queue reads
system.cpu.iq.int_inst_queue_wakeup_accesses     16696186                       # Number of integer instruction queue wakeup accesses
system.cpu.iq.int_inst_queue_writes          16839970                       # Number of integer instruction queue writes
system.cpu.iq.iqInstsAdded                   16741922                       # Number of instructions added to the IQ (excludes non-spec)
system.cpu.iq.iqInstsIssued                  16706137                       # Number of instructions issued
system.cpu.iq.iqNonSpecInstsAdded                  64                       # Number of non-speculative instructions added to the IQ
system.cpu.iq.iqSquashedInstsExamined           98012                       # Number of squashed instructions iterated over during squash; mainly for profiling
system.cpu.iq.iqSquashedInstsIssued               421                       # Number of squashed instructions issued
system.cpu.iq.iqSquashedNonSpecRemoved             30                       # Number of squashed non-spec instructions that were removed
system.cpu.iq.iqSquashedOperandsExamined       157809                       # Number of squashed operands that are examined and possibly removed from graph
system.cpu.iq.issued_per_cycle::samples      66390610                       # Number of insts issued each cycle
system.cpu.iq.issued_per_cycle::mean         0.251634                       # Number of insts issued each cycle
system.cpu.iq.issued_per_cycle::stdev        0.643193                       # Number of insts issued each cycle
system.cpu.iq.issued_per_cycle::underflows            0      0.00%      0.00% # Number of insts issued each cycle
system.cpu.iq.issued_per_cycle::0            55763973     83.99%     83.99% # Number of insts issued each cycle
system.cpu.iq.issued_per_cycle::1             5828879      8.78%     92.77% # Number of insts issued each cycle
system.cpu.iq.issued_per_cycle::2             3575833      5.39%     98.16% # Number of insts issued each cycle
system.cpu.iq.issued_per_cycle::3             1196497      1.80%     99.96% # Number of insts issued each cycle
system.cpu.iq.issued_per_cycle::4                8396      0.01%     99.97% # Number of insts issued each cycle
system.cpu.iq.issued_per_cycle::5                6599      0.01%     99.98% # Number of insts issued each cycle
system.cpu.iq.issued_per_cycle::6                5440      0.01%     99.99% # Number of insts issued each cycle
system.cpu.iq.issued_per_cycle::7                3062      0.00%    100.00% # Number of insts issued each cycle
system.cpu.iq.issued_per_cycle::8                1931      0.00%    100.00% # Number of insts issued each cycle
system.cpu.iq.issued_per_cycle::overflows            0      0.00%    100.00% # Number of insts issued each cycle
system.cpu.iq.issued_per_cycle::min_value            0                       # Number of insts issued each cycle
system.cpu.iq.issued_per_cycle::max_value            8                       # Number of insts issued each cycle
system.cpu.iq.issued_per_cycle::total        66390610                       # Number of insts issued each cycle
system.cpu.iq.rate                           0.251548                       # Inst issue rate
system.cpu.iq.vec_alu_accesses                      0                       # Number of vector alu accesses
system.cpu.iq.vec_inst_queue_reads                  0                       # Number of vector instruction queue reads
system.cpu.iq.vec_inst_queue_wakeup_accesses            0                       # Number of vector instruction queue wakeup accesses
system.cpu.iq.vec_inst_queue_writes                 0                       # Number of vector instruction queue writes
system.cpu.itb.rdAccesses                           0                       # TLB accesses on read requests
system.cpu.itb.rdMisses                             0                       # TLB misses on read requests
system.cpu.itb.walker.pwrStateResidencyTicks::UNDEFINED  66413234000                       # Cumulative time (in ticks) in various power states
system.cpu.itb.wrAccesses                     1018653                       # TLB accesses on write requests
system.cpu.itb.wrMisses                           114                       # TLB misses on write requests
system.cpu.itb_walker_cache.avg_blocked_cycles::no_mshrs          nan                       # average number of cycles each access was blocked
system.cpu.itb_walker_cache.avg_blocked_cycles::no_targets          nan                       # average number of cycles each access was blocked
system.cpu.itb_walker_cache.blocked::no_mshrs            0                       # number of cycles access was blocked
system.cpu.itb_walker_cache.blocked::no_targets            0                       # number of cycles access was blocked
system.cpu.itb_walker_cache.blocked_cycles::no_mshrs            0                       # number of cycles access was blocked
system.cpu.itb_walker_cache.blocked_cycles::no_targets            0                       # number of cycles access was blocked
system.cpu.itb_walker_cache.pwrStateResidencyTicks::UNDEFINED  66413234000                       # Cumulative time (in ticks) in various power states
system.cpu.itb_walker_cache.replacements            0                       # number of replacements
system.cpu.itb_walker_cache.tags.avg_refs          nan                       # Average number of references to valid blocks.
system.cpu.itb_walker_cache.tags.data_accesses            0                       # Number of data accesses
system.cpu.itb_walker_cache.tags.pwrStateResidencyTicks::UNDEFINED  66413234000                       # Cumulative time (in ticks) in various power states
system.cpu.itb_walker_cache.tags.sampled_refs            0                       # Sample count of references to valid blocks.
system.cpu.itb_walker_cache.tags.tag_accesses            0                       # Number of tag accesses
system.cpu.itb_walker_cache.tags.tagsinuse            0                       # Cycle average of tags in use
system.cpu.itb_walker_cache.tags.total_refs            0                       # Total number of references to valid blocks.
system.cpu.itb_walker_cache.tags.warmup_cycle            0                       # Cycle when the warmup percentage was hit.
system.cpu.memDep0.conflictingLoads           3501114                       # Number of conflicting loads.
system.cpu.memDep0.conflictingStores          2000538                       # Number of conflicting stores.
system.cpu.memDep0.insertedLoads              4036118                       # Number of loads inserted to the mem dependence unit.
system.cpu.memDep0.insertedStores             2018100                       # Number of stores inserted to the mem dependence unit.
system.cpu.misc_regfile_reads                 7089187                       # number of misc regfile reads
system.cpu.misc_regfile_writes                      9                       # number of misc regfile writes
system.cpu.numCycles                         66413235                       # number of cpu cycles simulated
system.cpu.numWorkItemsCompleted                    0                       # number of work items this cpu completed
system.cpu.numWorkItemsStarted                      0                       # number of work items this cpu started
system.cpu.pwrStateResidencyTicks::ON     66413234000                       # Cumulative time (in ticks) in various power states
system.cpu.rename.BlockCycles                56784300                       # Number of cycles rename is blocking
system.cpu.rename.CommittedMaps              25178036                       # Number of HB maps that are committed
system.cpu.rename.IQFullEvents                6756788                       # Number of times rename has blocked due to IQ full
system.cpu.rename.IdleCycles                  1284544                       # Number of cycles rename is idle
system.cpu.rename.LQFullEvents                   1058                       # Number of times rename has blocked due to LQ full
system.cpu.rename.ROBFullEvents                  1332                       # Number of times rename has blocked due to ROB full
system.cpu.rename.RenameLookups              40192171                       # Number of register rename lookups that rename has made
system.cpu.rename.RenamedInsts               16761935                       # Number of instructions processed by rename
system.cpu.rename.RenamedOperands            25320658                       # Number of destination operands rename has renamed
system.cpu.rename.RunCycles                   1474200                       # Number of cycles rename is running
system.cpu.rename.SQFullEvents                  22389                       # Number of times rename has blocked due to SQ full
system.cpu.rename.SquashCycles                   2951                       # Number of cycles rename is squashing
system.cpu.rename.UnblockCycles               6842560                       # Number of cycles rename is unblocking
system.cpu.rename.UndoneMaps                   142622                       # Number of HB maps that are undone due to squashing
system.cpu.rename.fp_rename_lookups               147                       # Number of floating rename lookups
system.cpu.rename.int_rename_lookups         27913168                       # Number of integer rename lookups
system.cpu.rename.serializeStallCycles           2055                       # count of cycles rename stalled for serializing inst
system.cpu.rename.serializingInsts                 86                       # count of serializing insts renamed
system.cpu.rename.skidInsts                  12464799                       # count of insts added to the skid buffer
system.cpu.rename.tempSerializingInsts             57                       # count of temporary serializing insts renamed
system.cpu.rob.rob_reads                     83111801                       # The number of ROB reads
system.cpu.rob.rob_writes                    33499293                       # The number of ROB writes
system.cpu.timesIdled                             417                       # Number of times that the entire CPU went into an idle state and unscheduled itself
system.cpu.workload.numSyscalls                    25                       # Number of system calls
system.cpu_clk_domain.clock                      1000                       # Clock period in ticks
system.cpu_voltage_domain.voltage                   1                       # Voltage in Volts
system.l2.CleanEvict_mshr_miss_rate::.writebacks          inf                       # mshr miss rate for CleanEvict accesses
system.l2.CleanEvict_mshr_miss_rate::total          inf                       # mshr miss rate for CleanEvict accesses
system.l2.CleanEvict_mshr_misses::.writebacks        51229                       # number of CleanEvict MSHR misses
system.l2.CleanEvict_mshr_misses::total         51229                       # number of CleanEvict MSHR misses
system.l2.HardPFReq_avg_mshr_miss_latency::.l2.prefetcher 82125.664241                       # average HardPFReq mshr miss latency
system.l2.HardPFReq_avg_mshr_miss_latency::total 82125.664241                       # average HardPFReq mshr miss latency
system.l2.HardPFReq_mshr_miss_latency::.l2.prefetcher  33456270973                       # number of HardPFReq MSHR miss cycles
system.l2.HardPFReq_mshr_miss_latency::total  33456270973                       # number of HardPFReq MSHR miss cycles
system.l2.HardPFReq_mshr_miss_rate::.l2.prefetcher          inf                       # mshr miss rate for HardPFReq accesses
system.l2.HardPFReq_mshr_miss_rate::total          inf                       # mshr miss rate for HardPFReq accesses
system.l2.HardPFReq_mshr_misses::.l2.prefetcher       407379                       # number of HardPFReq MSHR misses
system.l2.HardPFReq_mshr_misses::total         407379                       # number of HardPFReq MSHR misses
system.l2.ReadCleanReq_accesses::.cpu.inst          890                       # number of ReadCleanReq accesses(hits+misses)
system.l2.ReadCleanReq_accesses::total            890                       # number of ReadCleanReq accesses(hits+misses)
system.l2.ReadCleanReq_avg_miss_latency::.cpu.inst 101290.322581                       # average ReadCleanReq miss latency
system.l2.ReadCleanReq_avg_miss_latency::total 101290.322581                       # average ReadCleanReq miss latency
system.l2.ReadCleanReq_avg_mshr_miss_latency::.cpu.inst 82201.754386                       # average ReadCleanReq mshr miss latency
system.l2.ReadCleanReq_avg_mshr_miss_latency::total 82201.754386                       # average ReadCleanReq mshr miss latency
system.l2.ReadCleanReq_hits::.cpu.inst            425                       # number of ReadCleanReq hits
system.l2.ReadCleanReq_hits::total                425                       # number of ReadCleanReq hits
system.l2.ReadCleanReq_miss_latency::.cpu.inst     47100000                       # number of ReadCleanReq miss cycles
system.l2.ReadCleanReq_miss_latency::total     47100000                       # number of ReadCleanReq miss cycles
system.l2.ReadCleanReq_miss_rate::.cpu.inst     0.522472                       # miss rate for ReadCleanReq accesses
system.l2.ReadCleanReq_miss_rate::total      0.522472                       # miss rate for ReadCleanReq accesses
system.l2.ReadCleanReq_misses::.cpu.inst          465                       # number of ReadCleanReq misses
system.l2.ReadCleanReq_misses::total              465                       # number of ReadCleanReq misses
system.l2.ReadCleanReq_mshr_hits::.cpu.inst            9                       # number of ReadCleanReq MSHR hits
system.l2.ReadCleanReq_mshr_hits::total             9                       # number of ReadCleanReq MSHR hits
system.l2.ReadCleanReq_mshr_miss_latency::.cpu.inst     37484000                       # number of ReadCleanReq MSHR miss cycles
system.l2.ReadCleanReq_mshr_miss_latency::total     37484000                       # number of ReadCleanReq MSHR miss cycles
system.l2.ReadCleanReq_mshr_miss_rate::.cpu.inst     0.512360                       # mshr miss rate for ReadCleanReq accesses
system.l2.ReadCleanReq_mshr_miss_rate::total     0.512360                       # mshr miss rate for ReadCleanReq accesses
system.l2.ReadCleanReq_mshr_misses::.cpu.inst          456                       # number of ReadCleanReq MSHR misses
system.l2.ReadCleanReq_mshr_misses::total          456                       # number of ReadCleanReq MSHR misses
system.l2.ReadExReq_accesses::.cpu.data           437                       # number of ReadExReq accesses(hits+misses)
system.l2.ReadExReq_accesses::total               437                       # number of ReadExReq accesses(hits+misses)
system.l2.ReadExReq_avg_miss_latency::.cpu.data 102891.891892                       # average ReadExReq miss latency
system.l2.ReadExReq_avg_miss_latency::total 102891.891892                       # average ReadExReq miss latency
system.l2.ReadExReq_avg_mshr_miss_latency::.cpu.data 83015.503876                       # average ReadExReq mshr miss latency
system.l2.ReadExReq_avg_mshr_miss_latency::total 83015.503876                       # average ReadExReq mshr miss latency
system.l2.ReadExReq_hits::.cpu.data               178                       # number of ReadExReq hits
system.l2.ReadExReq_hits::total                   178                       # number of ReadExReq hits
system.l2.ReadExReq_miss_latency::.cpu.data     26649000                       # number of ReadExReq miss cycles
system.l2.ReadExReq_miss_latency::total      26649000                       # number of ReadExReq miss cycles
system.l2.ReadExReq_miss_rate::.cpu.data     0.592677                       # miss rate for ReadExReq accesses
system.l2.ReadExReq_miss_rate::total         0.592677                       # miss rate for ReadExReq accesses
system.l2.ReadExReq_misses::.cpu.data             259                       # number of ReadExReq misses
system.l2.ReadExReq_misses::total                 259                       # number of ReadExReq misses
system.l2.ReadExReq_mshr_hits::.cpu.data            1                       # number of ReadExReq MSHR hits
system.l2.ReadExReq_mshr_hits::total                1                       # number of ReadExReq MSHR hits
system.l2.ReadExReq_mshr_miss_latency::.cpu.data     21418000                       # number of ReadExReq MSHR miss cycles
system.l2.ReadExReq_mshr_miss_latency::total     21418000                       # number of ReadExReq MSHR miss cycles
system.l2.ReadExReq_mshr_miss_rate::.cpu.data     0.590389                       # mshr miss rate for ReadExReq accesses
system.l2.ReadExReq_mshr_miss_rate::total     0.590389                       # mshr miss rate for ReadExReq accesses
[...]
system.mem_ctrls.wrQLenPdf::26                     29                       # What write queue length does an incoming req see
system.mem_ctrls.wrQLenPdf::27                     29                       # What write queue length does an incoming req see
system.mem_ctrls.wrQLenPdf::28                     29                       # What write queue length does an incoming req see
system.mem_ctrls.wrQLenPdf::29                     29                       # What write queue length does an incoming req see
system.mem_ctrls.wrQLenPdf::30                     30                       # What write queue length does an incoming req see
system.mem_ctrls.wrQLenPdf::31                     29                       # What write queue length does an incoming req see
system.mem_ctrls.wrQLenPdf::32                     29                       # What write queue length does an incoming req see
system.mem_ctrls.wrQLenPdf::33                      0                       # What write queue length does an incoming req see
system.mem_ctrls.wrQLenPdf::34                      0                       # What write queue length does an incoming req see
system.mem_ctrls.wrQLenPdf::35                      0                       # What write queue length does an incoming req see
system.mem_ctrls.wrQLenPdf::36                      0                       # What write queue length does an incoming req see
system.mem_ctrls.wrQLenPdf::37                      0                       # What write queue length does an incoming req see
system.mem_ctrls.wrQLenPdf::38                      0                       # What write queue length does an incoming req see
system.mem_ctrls.wrQLenPdf::39                      0                       # What write queue length does an incoming req see
system.mem_ctrls.wrQLenPdf::40                      0                       # What write queue length does an incoming req see
system.mem_ctrls.wrQLenPdf::41                      0                       # What write queue length does an incoming req see
system.mem_ctrls.wrQLenPdf::42                      0                       # What write queue length does an incoming req see
system.mem_ctrls.wrQLenPdf::43                      0                       # What write queue length does an incoming req see
system.mem_ctrls.wrQLenPdf::44                      0                       # What write queue length does an incoming req see
system.mem_ctrls.wrQLenPdf::45                      0                       # What write queue length does an incoming req see
system.mem_ctrls.wrQLenPdf::46                      0                       # What write queue length does an incoming req see
system.mem_ctrls.wrQLenPdf::47                      0                       # What write queue length does an incoming req see
system.mem_ctrls.wrQLenPdf::48                      0                       # What write queue length does an incoming req see
system.mem_ctrls.wrQLenPdf::49                      0                       # What write queue length does an incoming req see
system.mem_ctrls.wrQLenPdf::50                      0                       # What write queue length does an incoming req see
system.mem_ctrls.wrQLenPdf::51                      0                       # What write queue length does an incoming req see
system.mem_ctrls.wrQLenPdf::52                      0                       # What write queue length does an incoming req see
system.mem_ctrls.wrQLenPdf::53                      0                       # What write queue length does an incoming req see
system.mem_ctrls.wrQLenPdf::54                      0                       # What write queue length does an incoming req see
system.mem_ctrls.wrQLenPdf::55                      0                       # What write queue length does an incoming req see
system.mem_ctrls.wrQLenPdf::56                      0                       # What write queue length does an incoming req see
system.mem_ctrls.wrQLenPdf::57                      0                       # What write queue length does an incoming req see
system.mem_ctrls.wrQLenPdf::58                      0                       # What write queue length does an incoming req see
system.mem_ctrls.wrQLenPdf::59                      0                       # What write queue length does an incoming req see
system.mem_ctrls.wrQLenPdf::60                      0                       # What write queue length does an incoming req see
system.mem_ctrls.wrQLenPdf::61                      0                       # What write queue length does an incoming req see
system.mem_ctrls.wrQLenPdf::62                      0                       # What write queue length does an incoming req see
system.mem_ctrls.wrQLenPdf::63                      0                       # What write queue length does an incoming req see
system.mem_ctrls.writeBursts                      480                       # Number of DRAM write bursts, including those merged in the write queue
system.mem_ctrls.writePktSize::0                    0                       # Write request sizes (log2)
system.mem_ctrls.writePktSize::1                    0                       # Write request sizes (log2)
system.mem_ctrls.writePktSize::2                    0                       # Write request sizes (log2)
system.mem_ctrls.writePktSize::3                    0                       # Write request sizes (log2)
system.mem_ctrls.writePktSize::4                    0                       # Write request sizes (log2)
system.mem_ctrls.writePktSize::5                    0                       # Write request sizes (log2)
system.mem_ctrls.writePktSize::6                  480                       # Write request sizes (log2)
system.mem_ctrls.writeReqs                        480                       # Number of write requests accepted
system.mem_ctrls.writeRowHitRate                74.58                       # Row buffer hit rate for writes
system.mem_ctrls.writeRowHits                     358                       # Number of row buffer hits during writes
system.mem_ctrls_0.actBackEnergy           6374623500                       # Energy for active background per rank (pJ)
system.mem_ctrls_0.actEnergy               1571913840                       # Energy for activate commands per rank (pJ)
system.mem_ctrls_0.actPowerDownEnergy     23576336580                       # Energy for active power-down per rank (pJ)
system.mem_ctrls_0.averagePower            616.869831                       # Core power per rank (mW)
system.mem_ctrls_0.memoryStateTime::IDLE     43713000                       # Time in different power states
system.mem_ctrls_0.memoryStateTime::REF    2217540000                       # Time in different power states
system.mem_ctrls_0.memoryStateTime::SREF            0                       # Time in different power states
system.mem_ctrls_0.memoryStateTime::PRE_PDN    433257750                       # Time in different power states
system.mem_ctrls_0.memoryStateTime::ACT   12011315000                       # Time in different power states
system.mem_ctrls_0.memoryStateTime::ACT_PDN  51707408250                       # Time in different power states
system.mem_ctrls_0.preBackEnergy            114295200                       # Energy for precharge background per rank (pJ)
system.mem_ctrls_0.preEnergy                835461660                       # Energy for precharge commands per rank (pJ)
system.mem_ctrls_0.prePowerDownEnergy       166525920                       # Energy for precharge power-down per rank (pJ)
system.mem_ctrls_0.readEnergy              3084779880                       # Energy for read commands per rank (pJ)
system.mem_ctrls_0.refreshEnergy         5242264560.000001                       # Energy for refresh commands per rank (pJ)
system.mem_ctrls_0.selfRefreshEnergy                0                       # Energy for self refresh per rank (pJ)
system.mem_ctrls_0.totalEnergy            40968320460                       # Total energy per rank (pJ)
system.mem_ctrls_0.totalIdleTime          52140606250                       # Total Idle time Per DRAM Rank
system.mem_ctrls_0.writeEnergy                2119320                       # Energy for write commands per rank (pJ)
system.mem_ctrls_1.actBackEnergy           6361572780                       # Energy for active background per rank (pJ)
system.mem_ctrls_1.actEnergy               1566544560                       # Energy for activate commands per rank (pJ)
system.mem_ctrls_1.actPowerDownEnergy     23588642880                       # Energy for active power-down per rank (pJ)
system.mem_ctrls_1.averagePower            616.629419                       # Core power per rank (mW)
system.mem_ctrls_1.memoryStateTime::IDLE     44913000                       # Time in different power states
system.mem_ctrls_1.memoryStateTime::REF    2217540000                       # Time in different power states
system.mem_ctrls_1.memoryStateTime::SREF      2502750                       # Time in different power states
system.mem_ctrls_1.memoryStateTime::PRE_PDN    428913500                       # Time in different power states
system.mem_ctrls_1.memoryStateTime::ACT   11984388000                       # Time in different power states
system.mem_ctrls_1.memoryStateTime::ACT_PDN  51734976750                       # Time in different power states
system.mem_ctrls_1.preBackEnergy            115604160                       # Energy for precharge background per rank (pJ)
system.mem_ctrls_1.preEnergy                832630590                       # Energy for precharge commands per rank (pJ)
system.mem_ctrls_1.prePowerDownEnergy       164882880                       # Energy for precharge power-down per rank (pJ)
system.mem_ctrls_1.readEnergy              3078839400                       # Energy for read commands per rank (pJ)
system.mem_ctrls_1.refreshEnergy         5242264560.000001                       # Energy for refresh commands per rank (pJ)
system.mem_ctrls_1.selfRefreshEnergy          1152840                       # Energy for self refresh per rank (pJ)
system.mem_ctrls_1.totalEnergy            40952353890                       # Total energy per rank (pJ)
system.mem_ctrls_1.totalIdleTime          52166089750                       # Total Idle time Per DRAM Rank
system.mem_ctrls_1.writeEnergy                 219240                       # Energy for write commands per rank (pJ)
system.membus.pkt_count_system.l2.mem_side::system.mem_ctrls.port      2585438                       # Packet count per connected master and slave (bytes)
system.membus.pkt_count_system.l2.mem_side::total      2585438                       # Packet count per connected master and slave (bytes)
system.membus.pkt_count::total                2585438                       # Packet count per connected master and slave (bytes)
system.membus.pkt_size_system.l2.mem_side::system.mem_ctrls.port     55279424                       # Cumulative packet size per connected master and slave (bytes)
system.membus.pkt_size_system.l2.mem_side::total     55279424                       # Cumulative packet size per connected master and slave (bytes)
system.membus.pkt_size::total                55279424                       # Cumulative packet size per connected master and slave (bytes)
system.membus.pwrStateResidencyTicks::UNDEFINED  66413234000                       # Cumulative time (in ticks) in various power states
system.membus.reqLayer2.occupancy          1724097000                       # Layer occupancy (ticks)
system.membus.reqLayer2.utilization               2.6                       # Layer utilization (%)
system.membus.respLayer1.occupancy         4618932000                       # Layer occupancy (ticks)
system.membus.respLayer1.utilization              7.0                       # Layer utilization (%)
system.membus.snoopTraffic                          0                       # Total snoop traffic (bytes)
system.membus.snoop_fanout::samples            863261                       # Request fanout histogram
system.membus.snoop_fanout::mean                    0                       # Request fanout histogram
system.membus.snoop_fanout::stdev                   0                       # Request fanout histogram
system.membus.snoop_fanout::underflows              0      0.00%      0.00% # Request fanout histogram
system.membus.snoop_fanout::0                  863261    100.00%    100.00% # Request fanout histogram
system.membus.snoop_fanout::1                       0      0.00%    100.00% # Request fanout histogram
system.membus.snoop_fanout::overflows               0      0.00%    100.00% # Request fanout histogram
system.membus.snoop_fanout::min_value               0                       # Request fanout histogram
system.membus.snoop_fanout::max_value               0                       # Request fanout histogram
system.membus.snoop_fanout::total              863261                       # Request fanout histogram
system.membus.snoop_filter.hit_multi_requests            0                       # Number of requests hitting in the snoop filter with multiple (>1) holders of the requested data.
system.membus.snoop_filter.hit_multi_snoops            0                       # Number of snoops hitting in the snoop filter with multiple (>1) holders of the requested data.
system.membus.snoop_filter.hit_single_requests       858916                       # Number of requests hitting in the snoop filter with a single holder of the requested data.
system.membus.snoop_filter.hit_single_snoops            0                       # Number of snoops hitting in the snoop filter with a single holder of the requested data.
system.membus.snoop_filter.tot_requests       1722177                       # Total number of requests made to the snoop filter.
system.membus.snoop_filter.tot_snoops               0                       # Total number of snoops made to the snoop filter.
system.membus.snoops                                0                       # Total snoops (count)
system.membus.trans_dist::ReadResp             863003                       # Transaction distribution
system.membus.trans_dist::WritebackDirty          480                       # Transaction distribution
system.membus.trans_dist::CleanEvict           858436                       # Transaction distribution
system.membus.trans_dist::ReadExReq               258                       # Transaction distribution
system.membus.trans_dist::ReadExResp              258                       # Transaction distribution
system.membus.trans_dist::ReadSharedReq        863003                       # Transaction distribution
system.tol2bus.pkt_count_system.cpu.icache.mem_side::system.l2.cpu_side         2414                       # Packet count per connected master and slave (bytes)
system.tol2bus.pkt_count_system.cpu.dcache.mem_side::system.l2.cpu_side      1480535                       # Packet count per connected master and slave (bytes)
system.tol2bus.pkt_count::total               1482949                       # Packet count per connected master and slave (bytes)
system.tol2bus.pkt_size_system.cpu.icache.mem_side::system.l2.cpu_side        97536                       # Cumulative packet size per connected master and slave (bytes)
system.tol2bus.pkt_size_system.cpu.dcache.mem_side::system.l2.cpu_side     31641280                       # Cumulative packet size per connected master and slave (bytes)
system.tol2bus.pkt_size::total               31738816                       # Cumulative packet size per connected master and slave (bytes)
system.tol2bus.pwrStateResidencyTicks::UNDEFINED  66413234000                       # Cumulative time (in ticks) in various power states
system.tol2bus.reqLayer0.occupancy          990558000                       # Layer occupancy (ticks)
system.tol2bus.reqLayer0.utilization              1.5                       # Layer utilization (%)
system.tol2bus.respLayer0.occupancy           2670000                       # Layer occupancy (ticks)
system.tol2bus.respLayer0.utilization             0.0                       # Layer utilization (%)
system.tol2bus.respLayer1.occupancy        1481559000                       # Layer occupancy (ticks)
system.tol2bus.respLayer1.utilization             2.2                       # Layer utilization (%)
system.tol2bus.snoopTraffic                     30720                       # Total snoop traffic (bytes)
system.tol2bus.snoop_fanout::samples          1761451                       # Request fanout histogram
system.tol2bus.snoop_fanout::mean            0.029579                       # Request fanout histogram
system.tol2bus.snoop_fanout::stdev           0.169423                       # Request fanout histogram
system.tol2bus.snoop_fanout::underflows             0      0.00%      0.00% # Request fanout histogram
system.tol2bus.snoop_fanout::0                1709349     97.04%     97.04% # Request fanout histogram
system.tol2bus.snoop_fanout::1                  52102      2.96%    100.00% # Request fanout histogram
system.tol2bus.snoop_fanout::2                      0      0.00%    100.00% # Request fanout histogram
system.tol2bus.snoop_fanout::3                      0      0.00%    100.00% # Request fanout histogram
system.tol2bus.snoop_fanout::4                      0      0.00%    100.00% # Request fanout histogram
system.tol2bus.snoop_fanout::overflows              0      0.00%    100.00% # Request fanout histogram
system.tol2bus.snoop_fanout::min_value              0                       # Request fanout histogram
system.tol2bus.snoop_fanout::max_value              1                       # Request fanout histogram
system.tol2bus.snoop_fanout::total            1761451                       # Request fanout histogram
system.tol2bus.snoop_filter.hit_multi_requests           11                       # Number of requests hitting in the snoop filter with multiple (>1) holders of the requested data.
system.tol2bus.snoop_filter.hit_multi_snoops            0                       # Number of snoops hitting in the snoop filter with multiple (>1) holders of the requested data.
system.tol2bus.snoop_filter.hit_single_requests       493463                       # Number of requests hitting in the snoop filter with a single holder of the requested data.
system.tol2bus.snoop_filter.hit_single_snoops        52091                       # Number of snoops hitting in the snoop filter with a single holder of the requested data.
system.tol2bus.snoop_filter.tot_requests       988206                       # Total number of requests made to the snoop filter.
system.tol2bus.snoop_filter.tot_snoops          52091                       # Total number of snoops made to the snoop filter.
system.tol2bus.snoops                         1266708                       # Total snoops (count)
system.tol2bus.trans_dist::ReadResp            494306                       # Transaction distribution
system.tol2bus.trans_dist::WritebackDirty         1022                       # Transaction distribution
system.tol2bus.trans_dist::WritebackClean          634                       # Transaction distribution
system.tol2bus.trans_dist::CleanEvict         1351067                       # Transaction distribution
system.tol2bus.trans_dist::HardPFReq           407448                       # Transaction distribution
system.tol2bus.trans_dist::ReadExReq              437                       # Transaction distribution
system.tol2bus.trans_dist::ReadExResp             437                       # Transaction distribution
system.tol2bus.trans_dist::ReadCleanReq           890                       # Transaction distribution
system.tol2bus.trans_dist::ReadSharedReq       493416                       # Transaction distribution
system.voltage_domain.voltage                       1                       # Voltage in Volts

---------- End Simulation Statistics   ----------
