
---------- Begin Simulation Statistics ----------
final_tick                                73081179000                       # Number of ticks from beginning of simulation (restored from checkpoints and never reset)
host_inst_rate                                  82656                       # Simulator instruction rate (inst/s)
host_mem_usage                                 806640                       # Number of bytes of host memory used
host_op_rate                                   151542                       # Simulator op (including micro ops) rate (op/s)
host_seconds                                   109.83                       # Real time elapsed on the host
host_tick_rate                              665399680                       # Simulator tick rate (ticks/s)
sim_freq                                 1000000000000                       # Frequency of simulated ticks
sim_insts                                     9078150                       # Number of instructions simulated
sim_ops                                      16643973                       # Number of ops (including micro ops) simulated
sim_seconds                                  0.073081                       # Number of seconds simulated
sim_ticks                                 73081179000                       # Number of ticks simulated
system.clk_domain.clock                          1000                       # Clock period in ticks
system.cpu.apic_clk_domain.clock                16000                       # Clock period in ticks
system.cpu.branchPred.BTBCorrect                    0                       # Number of correct BTB predictions (this stat may not work properly.
system.cpu.branchPred.BTBHitPct              0.000000                       # BTB Hit Percentage
system.cpu.branchPred.BTBHits                       0                       # Number of BTB hits
system.cpu.branchPred.BTBLookups               531902                       # Number of BTB lookups
system.cpu.branchPred.RASInCorrect                375                       # Number of incorrect RAS predictions.
system.cpu.branchPred.condIncorrect              2876                       # Number of conditional branches incorrect
system.cpu.branchPred.condPredicted            535521                       # Number of conditional branches predicted
system.cpu.branchPred.indirectHits             513077                       # Number of indirect target hits.
system.cpu.branchPred.indirectLookups          531902                       # Number of indirect predictor lookups.
system.cpu.branchPred.indirectMisses            18825                       # Number of indirect misses.
system.cpu.branchPred.lookups                  535521                       # Number of BP lookups
system.cpu.branchPred.usedRAS                    1475                       # Number of times the RAS was used to get a target.
system.cpu.branchPredindirectMispredicted         1708                       # Number of mispredicted indirect branches.
system.cpu.cc_regfile_reads                   5107357                       # number of cc regfile reads
system.cpu.cc_regfile_writes                 11072078                       # number of cc regfile writes
system.cpu.commit.amos                              0                       # Number of atomic instructions committed
system.cpu.commit.branchMispredicts              2895                       # The number of times a branch was mispredicted
system.cpu.commit.branches                     516932                       # Number of branches committed
system.cpu.commit.bw_lim_events                  5726                       # number cycles where commit BW limit reached
system.cpu.commit.commitNonSpecStalls              34                       # The number of times commit has been forced to stall to communicate backwards
system.cpu.commit.commitSquashedInsts          102229                       # The number of squashed insts skipped by commit
system.cpu.commit.committedInsts              9078150                       # Number of instructions committed
system.cpu.commit.committedOps               16643973                       # Number of ops (including micro ops) committed
system.cpu.commit.committed_per_cycle::samples     73039627                       # Number of insts commited each cycle
system.cpu.commit.committed_per_cycle::mean     0.227876                       # Number of insts commited each cycle
system.cpu.commit.committed_per_cycle::stdev     0.715839                       # Number of insts commited each cycle
system.cpu.commit.committed_per_cycle::underflows            0      0.00%      0.00% # Number of insts commited each cycle
system.cpu.commit.committed_per_cycle::0     63496326     86.93%     86.93% # Number of insts commited each cycle
system.cpu.commit.committed_per_cycle::1      5513397      7.55%     94.48% # Number of insts commited each cycle
system.cpu.commit.committed_per_cycle::2      2505542      3.43%     97.91% # Number of insts commited each cycle
system.cpu.commit.committed_per_cycle::3       509954      0.70%     98.61% # Number of insts commited each cycle
system.cpu.commit.committed_per_cycle::4       502797      0.69%     99.30% # Number of insts commited each cycle
system.cpu.commit.committed_per_cycle::5       503325      0.69%     99.99% # Number of insts commited each cycle
system.cpu.commit.committed_per_cycle::6         1911      0.00%     99.99% # Number of insts commited each cycle
system.cpu.commit.committed_per_cycle::7          649      0.00%     99.99% # Number of insts commited each cycle
system.cpu.commit.committed_per_cycle::8         5726      0.01%    100.00% # Number of insts commited each cycle
system.cpu.commit.committed_per_cycle::overflows            0      0.00%    100.00% # Number of insts commited each cycle
system.cpu.commit.committed_per_cycle::min_value            0                       # Number of insts commited each cycle
system.cpu.commit.committed_per_cycle::max_value            8                       # Number of insts commited each cycle
system.cpu.commit.committed_per_cycle::total     73039627                       # Number of insts commited each cycle
system.cpu.commit.fp_insts                        123                       # Number of committed floating point instructions.
system.cpu.commit.function_calls                  634                       # Number of function calls committed.
system.cpu.commit.int_insts                  16640875                       # Number of committed integer instructions.
system.cpu.commit.loads                       4021111                       # Number of loads committed
system.cpu.commit.membars                           0                       # Number of memory barriers committed
system.cpu.commit.op_class_0::No_OpClass         3068      0.02%      0.02% # Class of committed instruction
system.cpu.commit.op_class_0::IntAlu         10606816     63.73%     63.75% # Class of committed instruction
system.cpu.commit.op_class_0::IntMult              17      0.00%     63.75% # Class of committed instruction
system.cpu.commit.op_class_0::IntDiv             1260      0.01%     63.75% # Class of committed instruction
system.cpu.commit.op_class_0::FloatAdd              9      0.00%     63.75% # Class of committed instruction
system.cpu.commit.op_class_0::FloatCmp              0      0.00%     63.75% # Class of committed instruction
system.cpu.commit.op_class_0::FloatCvt             16      0.00%     63.75% # Class of committed instruction
system.cpu.commit.op_class_0::FloatMult             0      0.00%     63.75% # Class of committed instruction
system.cpu.commit.op_class_0::FloatMultAcc            0      0.00%     63.75% # Class of committed instruction
system.cpu.commit.op_class_0::FloatDiv              0      0.00%     63.75% # Class of committed instruction
system.cpu.commit.op_class_0::FloatMisc             0      0.00%     63.75% # Class of committed instruction
system.cpu.commit.op_class_0::FloatSqrt             0      0.00%     63.75% # Class of committed instruction
system.cpu.commit.op_class_0::SimdAdd               0      0.00%     63.75% # Class of committed instruction
system.cpu.commit.op_class_0::SimdAddAcc            0      0.00%     63.75% # Class of committed instruction
system.cpu.commit.op_class_0::SimdAlu               2      0.00%     63.75% # Class of committed instruction
system.cpu.commit.op_class_0::SimdCmp               0      0.00%     63.75% # Class of committed instruction
system.cpu.commit.op_class_0::SimdCvt               8      0.00%     63.75% # Class of committed instruction
system.cpu.commit.op_class_0::SimdMisc             15      0.00%     63.75% # Class of committed instruction
system.cpu.commit.op_class_0::SimdMult              0      0.00%     63.75% # Class of committed instruction
system.cpu.commit.op_class_0::SimdMultAcc            0      0.00%     63.75% # Class of committed instruction
system.cpu.commit.op_class_0::SimdShift             0      0.00%     63.75% # Class of committed instruction
system.cpu.commit.op_class_0::SimdShiftAcc            0      0.00%     63.75% # Class of committed instruction
system.cpu.commit.op_class_0::SimdDiv               0      0.00%     63.75% # Class of committed instruction
system.cpu.commit.op_class_0::SimdSqrt              0      0.00%     63.75% # Class of committed instruction
system.cpu.commit.op_class_0::SimdFloatAdd            0      0.00%     63.75% # Class of committed instruction
system.cpu.commit.op_class_0::SimdFloatAlu            0      0.00%     63.75% # Class of committed instruction
system.cpu.commit.op_class_0::SimdFloatCmp            0      0.00%     63.75% # Class of committed instruction
system.cpu.commit.op_class_0::SimdFloatCvt            0      0.00%     63.75% # Class of committed instruction
system.cpu.commit.op_class_0::SimdFloatDiv            0      0.00%     63.75% # Class of committed instruction
system.cpu.commit.op_class_0::SimdFloatMisc            0      0.00%     63.75% # Class of committed instruction
system.cpu.commit.op_class_0::SimdFloatMult            0      0.00%     63.75% # Class of committed instruction
system.cpu.commit.op_class_0::SimdFloatMultAcc            0      0.00%     63.75% # Class of committed instruction
system.cpu.commit.op_class_0::SimdFloatSqrt            0      0.00%     63.75% # Class of committed instruction
system.cpu.commit.op_class_0::SimdReduceAdd            0      0.00%     63.75% # Class of committed instruction
system.cpu.commit.op_class_0::SimdReduceAlu            0      0.00%     63.75% # Class of committed instruction
system.cpu.commit.op_class_0::SimdReduceCmp            0      0.00%     63.75% # Class of committed instruction
system.cpu.commit.op_class_0::SimdFloatReduceAdd            0      0.00%     63.75% # Class of committed instruction
system.cpu.commit.op_class_0::SimdFloatReduceCmp            0      0.00%     63.75% # Class of committed instruction
system.cpu.commit.op_class_0::SimdAes               0      0.00%     63.75% # Class of committed instruction
system.cpu.commit.op_class_0::SimdAesMix            0      0.00%     63.75% # Class of committed instruction
system.cpu.commit.op_class_0::SimdSha1Hash            0      0.00%     63.75% # Class of committed instruction
system.cpu.commit.op_class_0::SimdSha1Hash2            0      0.00%     63.75% # Class of committed instruction
system.cpu.commit.op_class_0::SimdSha256Hash            0      0.00%     63.75% # Class of committed instruction
system.cpu.commit.op_class_0::SimdSha256Hash2            0      0.00%     63.75% # Class of committed instruction
system.cpu.commit.op_class_0::SimdShaSigma2            0      0.00%     63.75% # Class of committed instruction
system.cpu.commit.op_class_0::SimdShaSigma3            0      0.00%     63.75% # Class of committed instruction
system.cpu.commit.op_class_0::SimdPredAlu            0      0.00%     63.75% # Class of committed instruction
system.cpu.commit.op_class_0::MemRead         4021075     24.16%     87.91% # Class of committed instruction
system.cpu.commit.op_class_0::MemWrite        2011619     12.09%    100.00% # Class of committed instruction
system.cpu.commit.op_class_0::FloatMemRead           36      0.00%    100.00% # Class of committed instruction
system.cpu.commit.op_class_0::FloatMemWrite           32      0.00%    100.00% # Class of committed instruction
system.cpu.commit.op_class_0::IprAccess             0      0.00%    100.00% # Class of committed instruction
system.cpu.commit.op_class_0::InstPrefetch            0      0.00%    100.00% # Class of committed instruction
system.cpu.commit.op_class_0::total          16643973                       # Class of committed instruction
system.cpu.commit.refs                        6032762                       # Number of memory references committed
system.cpu.commit.swp_count                         0                       # Number of s/w prefetches committed
system.cpu.commit.vec_insts                         0                       # Number of committed Vector instructions.
system.cpu.committedInsts                     9078150                       # Number of Instructions Simulated
system.cpu.committedOps                      16643973                       # Number of Ops (including micro ops) Simulated
system.cpu.cpi                               8.050228                       # CPI: Cycles Per Instruction
system.cpu.cpi_total                         8.050228                       # CPI: Total CPI of All Threads
system.cpu.dcache.ReadReq_accesses::.cpu.data      2527130                       # number of ReadReq accesses(hits+misses)
system.cpu.dcache.ReadReq_accesses::total      2527130                       # number of ReadReq accesses(hits+misses)
system.cpu.dcache.ReadReq_avg_miss_latency::.cpu.data 122392.741203                       # average ReadReq miss latency
system.cpu.dcache.ReadReq_avg_miss_latency::total 122392.741203                       # average ReadReq miss latency
system.cpu.dcache.ReadReq_avg_mshr_miss_latency::.cpu.data 120619.078694                       # average ReadReq mshr miss latency
system.cpu.dcache.ReadReq_avg_mshr_miss_latency::total 120619.078694                       # average ReadReq mshr miss latency
system.cpu.dcache.ReadReq_hits::.cpu.data      2030877                       # number of ReadReq hits
system.cpu.dcache.ReadReq_hits::total         2030877                       # number of ReadReq hits
system.cpu.dcache.ReadReq_miss_latency::.cpu.data  60737765000                       # number of ReadReq miss cycles
system.cpu.dcache.ReadReq_miss_latency::total  60737765000                       # number of ReadReq miss cycles
system.cpu.dcache.ReadReq_miss_rate::.cpu.data     0.196370                       # miss rate for ReadReq accesses
system.cpu.dcache.ReadReq_miss_rate::total     0.196370                       # miss rate for ReadReq accesses
system.cpu.dcache.ReadReq_misses::.cpu.data       496253                       # number of ReadReq misses
system.cpu.dcache.ReadReq_misses::total        496253                       # number of ReadReq misses
system.cpu.dcache.ReadReq_mshr_hits::.cpu.data         2823                       # number of ReadReq MSHR hits
system.cpu.dcache.ReadReq_mshr_hits::total         2823                       # number of ReadReq MSHR hits
system.cpu.dcache.ReadReq_mshr_miss_latency::.cpu.data  59517072000                       # number of ReadReq MSHR miss cycles
system.cpu.dcache.ReadReq_mshr_miss_latency::total  59517072000                       # number of ReadReq MSHR miss cycles
system.cpu.dcache.ReadReq_mshr_miss_rate::.cpu.data     0.195253                       # mshr miss rate for ReadReq accesses
system.cpu.dcache.ReadReq_mshr_miss_rate::total     0.195253                       # mshr miss rate for ReadReq accesses
system.cpu.dcache.ReadReq_mshr_misses::.cpu.data       493430                       # number of ReadReq MSHR misses
system.cpu.dcache.ReadReq_mshr_misses::total       493430                       # number of ReadReq MSHR misses
system.cpu.dcache.WriteReq_accesses::.cpu.data      2011652                       # number of WriteReq accesses(hits+misses)
system.cpu.dcache.WriteReq_accesses::total      2011652                       # number of WriteReq accesses(hits+misses)
system.cpu.dcache.WriteReq_avg_miss_latency::.cpu.data 105188.761798                       # average WriteReq miss latency
system.cpu.dcache.WriteReq_avg_miss_latency::total 105188.761798                       # average WriteReq miss latency
system.cpu.dcache.WriteReq_avg_mshr_miss_latency::.cpu.data 103511.363636                       # average WriteReq mshr miss latency
system.cpu.dcache.WriteReq_avg_mshr_miss_latency::total 103511.363636                       # average WriteReq mshr miss latency
system.cpu.dcache.WriteReq_hits::.cpu.data      2011207                       # number of WriteReq hits
system.cpu.dcache.WriteReq_hits::total        2011207                       # number of WriteReq hits
system.cpu.dcache.WriteReq_miss_latency::.cpu.data     46808999                       # number of WriteReq miss cycles
system.cpu.dcache.WriteReq_miss_latency::total     46808999                       # number of WriteReq miss cycles
system.cpu.dcache.WriteReq_miss_rate::.cpu.data     0.000221                       # miss rate for WriteReq accesses
system.cpu.dcache.WriteReq_miss_rate::total     0.000221                       # miss rate for WriteReq accesses
system.cpu.dcache.WriteReq_misses::.cpu.data          445                       # number of WriteReq misses
system.cpu.dcache.WriteReq_misses::total          445                       # number of WriteReq misses
system.cpu.dcache.WriteReq_mshr_hits::.cpu.data            5                       # number of WriteReq MSHR hits
system.cpu.dcache.WriteReq_mshr_hits::total            5                       # number of WriteReq MSHR hits
system.cpu.dcache.WriteReq_mshr_miss_latency::.cpu.data     45545000                       # number of WriteReq MSHR miss cycles
system.cpu.dcache.WriteReq_mshr_miss_latency::total     45545000                       # number of WriteReq MSHR miss cycles
system.cpu.dcache.WriteReq_mshr_miss_rate::.cpu.data     0.000219                       # mshr miss rate for WriteReq accesses
system.cpu.dcache.WriteReq_mshr_miss_rate::total     0.000219                       # mshr miss rate for WriteReq accesses
system.cpu.dcache.WriteReq_mshr_misses::.cpu.data          440                       # number of WriteReq MSHR misses
system.cpu.dcache.WriteReq_mshr_misses::total          440                       # number of WriteReq MSHR misses
system.cpu.dcache.avg_blocked_cycles::no_mshrs    62.945783                       # average number of cycles each access was blocked
system.cpu.dcache.avg_blocked_cycles::no_targets          nan                       # average number of cycles each access was blocked
system.cpu.dcache.blocked::no_mshrs               166                       # number of cycles access was blocked
system.cpu.dcache.blocked::no_targets               0                       # number of cycles access was blocked
system.cpu.dcache.blocked_cycles::no_mshrs        10449                       # number of cycles access was blocked
system.cpu.dcache.blocked_cycles::no_targets            0                       # number of cycles access was blocked
system.cpu.dcache.demand_accesses::.cpu.data      4538782                       # number of demand (read+write) accesses
system.cpu.dcache.demand_accesses::total      4538782                       # number of demand (read+write) accesses
system.cpu.dcache.demand_avg_miss_latency::.cpu.data 122377.327871                       # average overall miss latency
system.cpu.dcache.demand_avg_miss_latency::total 122377.327871                       # average overall miss latency
system.cpu.dcache.demand_avg_mshr_miss_latency::.cpu.data 120603.837042                       # average overall mshr miss latency
system.cpu.dcache.demand_avg_mshr_miss_latency::total 120603.837042                       # average overall mshr miss latency
system.cpu.dcache.demand_hits::.cpu.data      4042084                       # number of demand (read+write) hits
system.cpu.dcache.demand_hits::total          4042084                       # number of demand (read+write) hits
system.cpu.dcache.demand_miss_latency::.cpu.data  60784573999                       # number of demand (read+write) miss cycles
system.cpu.dcache.demand_miss_latency::total  60784573999                       # number of demand (read+write) miss cycles
system.cpu.dcache.demand_miss_rate::.cpu.data     0.109434                       # miss rate for demand accesses
system.cpu.dcache.demand_miss_rate::total     0.109434                       # miss rate for demand accesses
system.cpu.dcache.demand_misses::.cpu.data       496698                       # number of demand (read+write) misses
system.cpu.dcache.demand_misses::total         496698                       # number of demand (read+write) misses
system.cpu.dcache.demand_mshr_hits::.cpu.data         2828                       # number of demand (read+write) MSHR hits
system.cpu.dcache.demand_mshr_hits::total         2828                       # number of demand (read+write) MSHR hits
system.cpu.dcache.demand_mshr_miss_latency::.cpu.data  59562617000                       # number of demand (read+write) MSHR miss cycles
system.cpu.dcache.demand_mshr_miss_latency::total  59562617000                       # number of demand (read+write) MSHR miss cycles
system.cpu.dcache.demand_mshr_miss_rate::.cpu.data     0.108811                       # mshr miss rate for demand accesses
system.cpu.dcache.demand_mshr_miss_rate::total     0.108811                       # mshr miss rate for demand accesses
system.cpu.dcache.demand_mshr_misses::.cpu.data       493870                       # number of demand (read+write) MSHR misses
system.cpu.dcache.demand_mshr_misses::total       493870                       # number of demand (read+write) MSHR misses
system.cpu.dcache.overall_accesses::.cpu.data      4538782                       # number of overall (read+write) accesses
system.cpu.dcache.overall_accesses::total      4538782                       # number of overall (read+write) accesses
system.cpu.dcache.overall_avg_miss_latency::.cpu.data 122377.327871                       # average overall miss latency
system.cpu.dcache.overall_avg_miss_latency::total 122377.327871                       # average overall miss latency
system.cpu.dcache.overall_avg_mshr_miss_latency::.cpu.data 120603.837042                       # average overall mshr miss latency
system.cpu.dcache.overall_avg_mshr_miss_latency::total 120603.837042                       # average overall mshr miss latency
system.cpu.dcache.overall_hits::.cpu.data      4042084                       # number of overall hits
system.cpu.dcache.overall_hits::total         4042084                       # number of overall hits
system.cpu.dcache.overall_miss_latency::.cpu.data  60784573999                       # number of overall miss cycles
system.cpu.dcache.overall_miss_latency::total  60784573999                       # number of overall miss cycles
system.cpu.dcache.overall_miss_rate::.cpu.data     0.109434                       # miss rate for overall accesses
system.cpu.dcache.overall_miss_rate::total     0.109434                       # miss rate for overall accesses
system.cpu.dcache.overall_misses::.cpu.data       496698                       # number of overall misses
system.cpu.dcache.overall_misses::total        496698                       # number of overall misses
system.cpu.dcache.overall_mshr_hits::.cpu.data         2828                       # number of overall MSHR hits
system.cpu.dcache.overall_mshr_hits::total         2828                       # number of overall MSHR hits
system.cpu.dcache.overall_mshr_miss_latency::.cpu.data  59562617000                       # number of overall MSHR miss cycles
system.cpu.dcache.overall_mshr_miss_latency::total  59562617000                       # number of overall MSHR miss cycles
system.cpu.dcache.overall_mshr_miss_rate::.cpu.data     0.108811                       # mshr miss rate for overall accesses
system.cpu.dcache.overall_mshr_miss_rate::total     0.108811                       # mshr miss rate for overall accesses
system.cpu.dcache.overall_mshr_misses::.cpu.data       493870                       # number of overall MSHR misses
system.cpu.dcache.overall_mshr_misses::total       493870                       # number of overall MSHR misses
system.cpu.dcache.pwrStateResidencyTicks::UNDEFINED  73081179000                       # Cumulative time (in ticks) in various power states
system.cpu.dcache.replacements                 492844                       # number of replacements
system.cpu.dcache.tags.age_task_id_blocks_1024::0           96                       # Occupied blocks per task id
system.cpu.dcache.tags.age_task_id_blocks_1024::1          498                       # Occupied blocks per task id
system.cpu.dcache.tags.age_task_id_blocks_1024::2          429                       # Occupied blocks per task id
system.cpu.dcache.tags.age_task_id_blocks_1024::4            1                       # Occupied blocks per task id
system.cpu.dcache.tags.avg_refs              9.184543                       # Average number of references to valid blocks.
system.cpu.dcache.tags.data_accesses          9571432                       # Number of data accesses
system.cpu.dcache.tags.occ_blocks::.cpu.data  1023.029365                       # Average occupied blocks per requestor
system.cpu.dcache.tags.occ_percent::.cpu.data     0.999052                       # Average percentage of cache occupancy
system.cpu.dcache.tags.occ_percent::total     0.999052                       # Average percentage of cache occupancy
system.cpu.dcache.tags.occ_task_id_blocks::1024         1024                       # Occupied blocks per task id
system.cpu.dcache.tags.occ_task_id_percent::1024            1                       # Percentage of cache occupancy per task id
system.cpu.dcache.tags.pwrStateResidencyTicks::UNDEFINED  73081179000                       # Cumulative time (in ticks) in various power states
system.cpu.dcache.tags.sampled_refs            493868                       # Sample count of references to valid blocks.
system.cpu.dcache.tags.tag_accesses           9571432                       # Number of tag accesses
system.cpu.dcache.tags.tagsinuse          1023.029365                       # Cycle average of tags in use
system.cpu.dcache.tags.total_refs             4535952                       # Total number of references to valid blocks.
system.cpu.dcache.tags.warmup_cycle            244000                       # Cycle when the warmup percentage was hit.
system.cpu.dcache.writebacks::.writebacks          549                       # number of writebacks
system.cpu.dcache.writebacks::total               549                       # number of writebacks
system.cpu.decode.BlockedCycles              70228154                       # Number of cycles decode is blocked
system.cpu.decode.DecodedInsts               16778801                       # Number of instructions handled by decode
system.cpu.decode.IdleCycles                   721013                       # Number of cycles decode is idle
system.cpu.decode.RunCycles                     33759                       # Number of cycles decode is running
system.cpu.decode.SquashCycles                   3045                       # Number of cycles decode is squashing
system.cpu.decode.UnblockCycles               2069307                       # Number of cycles decode is unblocking
system.cpu.dtb.rdAccesses                     4030024                       # TLB accesses on read requests
system.cpu.dtb.rdMisses                        440208                       # TLB misses on read requests
system.cpu.dtb.walker.pwrStateResidencyTicks::UNDEFINED  73081179000                       # Cumulative time (in ticks) in various power states
system.cpu.dtb.wrAccesses                     2015618                       # TLB accesses on write requests
system.cpu.dtb.wrMisses                           115                       # TLB misses on write requests
system.cpu.dtb_walker_cache.avg_blocked_cycles::no_mshrs          nan                       # average number of cycles each access was blocked
system.cpu.dtb_walker_cache.avg_blocked_cycles::no_targets          nan                       # average number of cycles each access was blocked
system.cpu.dtb_walker_cache.blocked::no_mshrs            0                       # number of cycles access was blocked
system.cpu.dtb_walker_cache.blocked::no_targets            0                       # number of cycles access was blocked
system.cpu.dtb_walker_cache.blocked_cycles::no_mshrs            0                       # number of cycles access was blocked
system.cpu.dtb_walker_cache.blocked_cycles::no_targets            0                       # number of cycles access was blocked
system.cpu.dtb_walker_cache.pwrStateResidencyTicks::UNDEFINED  73081179000                       # Cumulative time (in ticks) in various power states
system.cpu.dtb_walker_cache.replacements            0                       # number of replacements
system.cpu.dtb_walker_cache.tags.avg_refs          nan                       # Average number of references to valid blocks.
system.cpu.dtb_walker_cache.tags.data_accesses            0                       # Number of data accesses
system.cpu.dtb_walker_cache.tags.pwrStateResidencyTicks::UNDEFINED  73081179000                       # Cumulative time (in ticks) in various power states
system.cpu.dtb_walker_cache.tags.sampled_refs            0                       # Sample count of references to valid blocks.
system.cpu.dtb_walker_cache.tags.tag_accesses            0                       # Number of tag accesses
system.cpu.dtb_walker_cache.tags.tagsinuse            0                       # Cycle average of tags in use
system.cpu.dtb_walker_cache.tags.total_refs            0                       # Total number of references to valid blocks.
system.cpu.dtb_walker_cache.tags.warmup_cycle            0                       # Cycle when the warmup percentage was hit.
system.cpu.fetch.Branches                      535521                       # Number of branches that fetch encountered
system.cpu.fetch.CacheLines                   1018970                       # Number of cache lines fetched
system.cpu.fetch.Cycles                      72012726                       # Number of cycles fetch has run and was not squashing or blocked
system.cpu.fetch.IcacheSquashes                  1192                       # Number of outstanding Icache misses that were squashed
system.cpu.fetch.Insts                        9168281                       # Number of instructions fetch has processed
system.cpu.fetch.MiscStallCycles                   19                       # Number of cycles fetch has spent waiting on interrupts, or bad addresses, or out of MSHRs
system.cpu.fetch.PendingQuiesceStallCycles           12                       # Number of stall cycles due to pending quiesce instructions
system.cpu.fetch.PendingTrapStallCycles           292                       # Number of stall cycles due to pending traps
system.cpu.fetch.SquashCycles                    6090                       # Number of cycles fetch has spent squashing
system.cpu.fetch.branchRate                  0.007328                       # Number of branch fetches per cycle
system.cpu.fetch.icacheStallCycles            1039184                       # Number of cycles fetch is stalled on an Icache miss
system.cpu.fetch.predictedBranches             514552                       # Number of branches that fetch has predicted taken
system.cpu.fetch.rate                        0.125453                       # Number of inst fetches per cycle
system.cpu.fetch.rateDist::samples           73055278                       # Number of instructions fetched each cycle (Total)
system.cpu.fetch.rateDist::mean              0.230038                       # Number of instructions fetched each cycle (Total)
system.cpu.fetch.rateDist::stdev             1.230160                       # Number of instructions fetched each cycle (Total)
system.cpu.fetch.rateDist::underflows               0      0.00%      0.00% # Number of instructions fetched each cycle (Total)
system.cpu.fetch.rateDist::0                 70130640     96.00%     96.00% # Number of instructions fetched each cycle (Total)
system.cpu.fetch.rateDist::1                   253090      0.35%     96.34% # Number of instructions fetched each cycle (Total)
system.cpu.fetch.rateDist::2                   189608      0.26%     96.60% # Number of instructions fetched each cycle (Total)
system.cpu.fetch.rateDist::3                   192481      0.26%     96.87% # Number of instructions fetched each cycle (Total)
system.cpu.fetch.rateDist::4                   254662      0.35%     97.21% # Number of instructions fetched each cycle (Total)
system.cpu.fetch.rateDist::5                   439822      0.60%     97.82% # Number of instructions fetched each cycle (Total)
system.cpu.fetch.rateDist::6                   127253      0.17%     97.99% # Number of instructions fetched each cycle (Total)
system.cpu.fetch.rateDist::7                   127293      0.17%     98.17% # Number of instructions fetched each cycle (Total)
system.cpu.fetch.rateDist::8                  1340429      1.83%    100.00% # Number of instructions fetched each cycle (Total)
system.cpu.fetch.rateDist::overflows                0      0.00%    100.00% # Number of instructions fetched each cycle (Total)
system.cpu.fetch.rateDist::min_value                0                       # Number of instructions fetched each cycle (Total)
system.cpu.fetch.rateDist::max_value                8                       # Number of instructions fetched each cycle (Total)
system.cpu.fetch.rateDist::total             73055278                       # Number of instructions fetched each cycle (Total)
system.cpu.fp_regfile_reads                       127                       # number of floating regfile reads
system.cpu.fp_regfile_writes                       77                       # number of floating regfile writes
system.cpu.icache.ReadReq_accesses::.cpu.inst      1018970                       # number of ReadReq accesses(hits+misses)
system.cpu.icache.ReadReq_accesses::total      1018970                       # number of ReadReq accesses(hits+misses)
system.cpu.icache.ReadReq_avg_miss_latency::.cpu.inst 79768.292683                       # average ReadReq miss latency
system.cpu.icache.ReadReq_avg_miss_latency::total 79768.292683                       # average ReadReq miss latency
system.cpu.icache.ReadReq_avg_mshr_miss_latency::.cpu.inst 81806.451613                       # average ReadReq mshr miss latency
system.cpu.icache.ReadReq_avg_mshr_miss_latency::total 81806.451613                       # average ReadReq mshr miss latency
system.cpu.icache.ReadReq_hits::.cpu.inst      1017822                       # number of ReadReq hits
system.cpu.icache.ReadReq_hits::total         1017822                       # number of ReadReq hits
system.cpu.icache.ReadReq_miss_latency::.cpu.inst     91574000                       # number of ReadReq miss cycles
system.cpu.icache.ReadReq_miss_latency::total     91574000                       # number of ReadReq miss cycles
system.cpu.icache.ReadReq_miss_rate::.cpu.inst     0.001127                       # miss rate for ReadReq accesses
system.cpu.icache.ReadReq_miss_rate::total     0.001127                       # miss rate for ReadReq accesses
system.cpu.icache.ReadReq_misses::.cpu.inst         1148                       # number of ReadReq misses
system.cpu.icache.ReadReq_misses::total          1148                       # number of ReadReq misses
system.cpu.icache.ReadReq_mshr_hits::.cpu.inst          249                       # number of ReadReq MSHR hits
system.cpu.icache.ReadReq_mshr_hits::total          249                       # number of ReadReq MSHR hits
system.cpu.icache.ReadReq_mshr_miss_latency::.cpu.inst     73544000                       # number of ReadReq MSHR miss cycles
system.cpu.icache.ReadReq_mshr_miss_latency::total     73544000                       # number of ReadReq MSHR miss cycles
system.cpu.icache.ReadReq_mshr_miss_rate::.cpu.inst     0.000882                       # mshr miss rate for ReadReq accesses
system.cpu.icache.ReadReq_mshr_miss_rate::total     0.000882                       # mshr miss rate for ReadReq accesses
system.cpu.icache.ReadReq_mshr_misses::.cpu.inst          899                       # number of ReadReq MSHR misses
system.cpu.icache.ReadReq_mshr_misses::total          899                       # number of ReadReq MSHR misses
system.cpu.icache.avg_blocked_cycles::no_mshrs           20                       # average number of cycles each access was blocked
system.cpu.icache.avg_blocked_cycles::no_targets          nan                       # average number of cycles each access was blocked
system.cpu.icache.blocked::no_mshrs                 2                       # number of cycles access was blocked
system.cpu.icache.blocked::no_targets               0                       # number of cycles access was blocked
system.cpu.icache.blocked_cycles::no_mshrs           40                       # number of cycles access was blocked
system.cpu.icache.blocked_cycles::no_targets            0                       # number of cycles access was blocked
system.cpu.icache.demand_accesses::.cpu.inst      1018970                       # number of demand (read+write) accesses
system.cpu.icache.demand_accesses::total      1018970                       # number of demand (read+write) accesses
system.cpu.icache.demand_avg_miss_latency::.cpu.inst 79768.292683                       # average overall miss latency
system.cpu.icache.demand_avg_miss_latency::total 79768.292683                       # average overall miss latency
system.cpu.icache.demand_avg_mshr_miss_latency::.cpu.inst 81806.451613                       # average overall mshr miss latency
system.cpu.icache.demand_avg_mshr_miss_latency::total 81806.451613                       # average overall mshr miss latency
system.cpu.icache.demand_hits::.cpu.inst      1017822                       # number of demand (read+write) hits
system.cpu.icache.demand_hits::total          1017822                       # number of demand (read+write) hits
system.cpu.icache.demand_miss_latency::.cpu.inst     91574000                       # number of demand (read+write) miss cycles
system.cpu.icache.demand_miss_latency::total     91574000                       # number of demand (read+write) miss cycles
system.cpu.icache.demand_miss_rate::.cpu.inst     0.001127                       # miss rate for demand accesses
system.cpu.icache.demand_miss_rate::total     0.001127                       # miss rate for demand accesses
system.cpu.icache.demand_misses::.cpu.inst         1148                       # number of demand (read+write) misses
system.cpu.icache.demand_misses::total           1148                       # number of demand (read+write) misses
system.cpu.icache.demand_mshr_hits::.cpu.inst          249                       # number of demand (read+write) MSHR hits
system.cpu.icache.demand_mshr_hits::total          249                       # number of demand (read+write) MSHR hits
system.cpu.icache.demand_mshr_miss_latency::.cpu.inst     73544000                       # number of demand (read+write) MSHR miss cycles
system.cpu.icache.demand_mshr_miss_latency::total     73544000                       # number of demand (read+write) MSHR miss cycles
system.cpu.icache.demand_mshr_miss_rate::.cpu.inst     0.000882                       # mshr miss rate for demand accesses
system.cpu.icache.demand_mshr_miss_rate::total     0.000882                       # mshr miss rate for demand accesses
system.cpu.icache.demand_mshr_misses::.cpu.inst          899                       # number of demand (read+write) MSHR misses
system.cpu.icache.demand_mshr_misses::total          899                       # number of demand (read+write) MSHR misses
system.cpu.icache.overall_accesses::.cpu.inst      1018970                       # number of overall (read+write) accesses
system.cpu.icache.overall_accesses::total      1018970                       # number of overall (read+write) accesses
system.cpu.icache.overall_avg_miss_latency::.cpu.inst 79768.292683                       # average overall miss latency
system.cpu.icache.overall_avg_miss_latency::total 79768.292683                       # average overall miss latency
system.cpu.icache.overall_avg_mshr_miss_latency::.cpu.inst 81806.451613                       # average overall mshr miss latency
system.cpu.icache.overall_avg_mshr_miss_latency::total 81806.451613                       # average overall mshr miss latency
system.cpu.icache.overall_hits::.cpu.inst      1017822                       # number of overall hits
system.cpu.icache.overall_hits::total         1017822                       # number of overall hits
system.cpu.icache.overall_miss_latency::.cpu.inst     91574000                       # number of overall miss cycles
system.cpu.icache.overall_miss_latency::total     91574000                       # number of overall miss cycles
system.cpu.icache.overall_miss_rate::.cpu.inst     0.001127                       # miss rate for overall accesses
system.cpu.icache.overall_miss_rate::total     0.001127                       # miss rate for overall accesses
system.cpu.icache.overall_misses::.cpu.inst         1148                       # number of overall misses
system.cpu.icache.overall_misses::total          1148                       # number of overall misses
system.cpu.icache.overall_mshr_hits::.cpu.inst          249                       # number of overall MSHR hits
system.cpu.icache.overall_mshr_hits::total          249                       # number of overall MSHR hits
system.cpu.icache.overall_mshr_miss_latency::.cpu.inst     73544000                       # number of overall MSHR miss cycles
system.cpu.icache.overall_mshr_miss_latency::total     73544000                       # number of overall MSHR miss cycles
system.cpu.icache.overall_mshr_miss_rate::.cpu.inst     0.000882                       # mshr miss rate for overall accesses
system.cpu.icache.overall_mshr_miss_rate::total     0.000882                       # mshr miss rate for overall accesses
system.cpu.icache.overall_mshr_misses::.cpu.inst          899                       # number of overall MSHR misses
system.cpu.icache.overall_mshr_misses::total          899                       # number of overall MSHR misses
system.cpu.icache.pwrStateResidencyTicks::UNDEFINED  73081179000                       # Cumulative time (in ticks) in various power states
system.cpu.icache.replacements                    642                       # number of replacements
system.cpu.icache.tags.age_task_id_blocks_1024::0           44                       # Occupied blocks per task id
system.cpu.icache.tags.age_task_id_blocks_1024::4          212                       # Occupied blocks per task id
system.cpu.icache.tags.avg_refs           1134.432071                       # Average number of references to valid blocks.
system.cpu.icache.tags.data_accesses          2038838                       # Number of data accesses
system.cpu.icache.tags.occ_blocks::.cpu.inst   255.949086                       # Average occupied blocks per requestor
system.cpu.icache.tags.occ_percent::.cpu.inst     0.999801                       # Average percentage of cache occupancy
system.cpu.icache.tags.occ_percent::total     0.999801                       # Average percentage of cache occupancy
system.cpu.icache.tags.occ_task_id_blocks::1024          256                       # Occupied blocks per task id
system.cpu.icache.tags.occ_task_id_percent::1024            1                       # Percentage of cache occupancy per task id
system.cpu.icache.tags.pwrStateResidencyTicks::UNDEFINED  73081179000                       # Cumulative time (in ticks) in various power states
system.cpu.icache.tags.sampled_refs               898                       # Sample count of references to valid blocks.
system.cpu.icache.tags.tag_accesses           2038838                       # Number of tag accesses
system.cpu.icache.tags.tagsinuse           255.949086                       # Cycle average of tags in use
system.cpu.icache.tags.total_refs             1018720                       # Total number of references to valid blocks.
system.cpu.icache.tags.warmup_cycle            108000                       # Cycle when the warmup percentage was hit.
system.cpu.icache.writebacks::.writebacks          642                       # number of writebacks
system.cpu.icache.writebacks::total               642                       # number of writebacks
system.cpu.idleCycles                           25902                       # Total number of cycles that the CPU has spent unscheduled due to idling
system.cpu.iew.branchMispredicts                 3584                       # Number of branch mispredicts detected at execute
system.cpu.iew.exec_branches                   520502                       # Number of branches executed
system.cpu.iew.exec_nop                             0                       # number of nop insts executed
system.cpu.iew.exec_rate                     0.228545                       # Inst execution rate
system.cpu.iew.exec_refs                      6046134                       # number of memory reference insts executed
system.cpu.iew.exec_stores                    2015616                       # Number of stores executed
system.cpu.iew.exec_swp                             0                       # number of swp insts executed
system.cpu.iew.iewBlockCycles                58931550                       # Number of cycles IEW is blocking
system.cpu.iew.iewDispLoadInsts               4036956                       # Number of dispatched load instructions
system.cpu.iew.iewDispNonSpecInsts                 56                       # Number of dispatched non-speculative instructions
system.cpu.iew.iewDispSquashedInsts               130                       # Number of squashed instructions skipped by dispatch
system.cpu.iew.iewDispStoreInsts              2018579                       # Number of dispatched store instructions
system.cpu.iew.iewDispatchedInsts            16746186                       # Number of instructions dispatched to IQ
system.cpu.iew.iewExecLoadInsts               4030518                       # Number of load instructions executed
system.cpu.iew.iewExecSquashedInsts              6008                       # Number of squashed instructions skipped in execute
system.cpu.iew.iewExecutedInsts              16702356                       # Number of executed instructions
system.cpu.iew.iewIQFullEvents                    229                       # Number of times the IQ has become full, causing a stall
system.cpu.iew.iewIdleCycles                        0                       # Number of cycles IEW is idle
system.cpu.iew.iewLSQFullEvents                  2388                       # Number of times the LSQ has become full, causing a stall
system.cpu.iew.iewSquashCycles                   3045                       # Number of cycles IEW is squashing
system.cpu.iew.iewUnblockCycles                  2776                       # Number of cycles IEW is unblocking
system.cpu.iew.lsq.thread0.blockedLoads             0                       # Number of blocked loads due to partial load-store forwarding
system.cpu.iew.lsq.thread0.cacheBlocked           149                       # Number of times an access to memory failed due to the cache being blocked
system.cpu.iew.lsq.thread0.forwLoads          1502477                       # Number of loads that had data forwarded from stores
system.cpu.iew.lsq.thread0.ignoredResponses           51                       # Number of memory responses ignored because the instruction is squashed
system.cpu.iew.lsq.thread0.invAddrLoads             0                       # Number of loads ignored due to an invalid address
system.cpu.iew.lsq.thread0.invAddrSwpfs             0                       # Number of software prefetches ignored due to an invalid address
system.cpu.iew.lsq.thread0.memOrderViolation          184                       # Number of memory ordering violations
system.cpu.iew.lsq.thread0.rescheduledLoads            1                       # Number of loads that were rescheduled
system.cpu.iew.lsq.thread0.squashedLoads        15845                       # Number of loads squashed
system.cpu.iew.lsq.thread0.squashedStores         6928                       # Number of stores squashed
system.cpu.iew.memOrderViolationEvents            184                       # Number of memory order violations
system.cpu.iew.predictedNotTakenIncorrect         2686                       # Number of branches that were predicted not taken incorrectly
system.cpu.iew.predictedTakenIncorrect            898                       # Number of branches that were predicted taken incorrectly
system.cpu.iew.wb_consumers                  17174404                       # num instructions consuming a value
system.cpu.iew.wb_count                      16698637                       # cumulative count of insts written-back
system.cpu.iew.wb_fanout                     0.703325                       # average fanout of values written-back
system.cpu.iew.wb_producers                  12079191                       # num instructions producing a value
system.cpu.iew.wb_rate                       0.228494                       # insts written-back per cycle
system.cpu.iew.wb_sent                       16700036                       # cumulative count of insts sent to commit
system.cpu.int_regfile_reads                 27798816                       # number of integer regfile reads
system.cpu.int_regfile_writes                14164763                       # number of integer regfile writes
system.cpu.interrupts.pwrStateResidencyTicks::UNDEFINED  73081179000                       # Cumulative time (in ticks) in various power states
system.cpu.ipc                               0.124220                       # IPC: Instructions Per Cycle
system.cpu.ipc_total                         0.124220                       # IPC: Total IPC of All Threads
system.cpu.iq.FU_type_0::No_OpClass              4177      0.02%      0.02% # Type of FU issued
system.cpu.iq.FU_type_0::IntAlu              10654669     63.77%     63.79% # Type of FU issued
system.cpu.iq.FU_type_0::IntMult                   38      0.00%     63.79% # Type of FU issued
system.cpu.iq.FU_type_0::IntDiv                  1362      0.01%     63.80% # Type of FU issued
system.cpu.iq.FU_type_0::FloatAdd                   9      0.00%     63.80% # Type of FU issued
system.cpu.iq.FU_type_0::FloatCmp                   0      0.00%     63.80% # Type of FU issued
system.cpu.iq.FU_type_0::FloatCvt                  16      0.00%     63.80% # Type of FU issued
system.cpu.iq.FU_type_0::FloatMult                  0      0.00%     63.80% # Type of FU issued
system.cpu.iq.FU_type_0::FloatMultAcc               0      0.00%     63.80% # Type of FU issued
system.cpu.iq.FU_type_0::FloatDiv                   0      0.00%     63.80% # Type of FU issued
system.cpu.iq.FU_type_0::FloatMisc                  0      0.00%     63.80% # Type of FU issued
system.cpu.iq.FU_type_0::FloatSqrt                  0      0.00%     63.80% # Type of FU issued
system.cpu.iq.FU_type_0::SimdAdd                    0      0.00%     63.80% # Type of FU issued
system.cpu.iq.FU_type_0::SimdAddAcc                 0      0.00%     63.80% # Type of FU issued
system.cpu.iq.FU_type_0::SimdAlu                    2      0.00%     63.80% # Type of FU issued
system.cpu.iq.FU_type_0::SimdCmp                    0      0.00%     63.80% # Type of FU issued
system.cpu.iq.FU_type_0::SimdCvt                   12      0.00%     63.80% # Type of FU issued
system.cpu.iq.FU_type_0::SimdMisc                  19      0.00%     63.80% # Type of FU issued
system.cpu.iq.FU_type_0::SimdMult                   0      0.00%     63.80% # Type of FU issued
system.cpu.iq.FU_type_0::SimdMultAcc                0      0.00%     63.80% # Type of FU issued
system.cpu.iq.FU_type_0::SimdShift                  0      0.00%     63.80% # Type of FU issued
system.cpu.iq.FU_type_0::SimdShiftAcc               0      0.00%     63.80% # Type of FU issued
system.cpu.iq.FU_type_0::SimdDiv                    0      0.00%     63.80% # Type of FU issued
system.cpu.iq.FU_type_0::SimdSqrt                   0      0.00%     63.80% # Type of FU issued
system.cpu.iq.FU_type_0::SimdFloatAdd               0      0.00%     63.80% # Type of FU issued
system.cpu.iq.FU_type_0::SimdFloatAlu               0      0.00%     63.80% # Type of FU issued
system.cpu.iq.FU_type_0::SimdFloatCmp               0      0.00%     63.80% # Type of FU issued
system.cpu.iq.FU_type_0::SimdFloatCvt               0      0.00%     63.80% # Type of FU issued
system.cpu.iq.FU_type_0::SimdFloatDiv               0      0.00%     63.80% # Type of FU issued
system.cpu.iq.FU_type_0::SimdFloatMisc              0      0.00%     63.80% # Type of FU issued
system.cpu.iq.FU_type_0::SimdFloatMult              0      0.00%     63.80% # Type of FU issued
system.cpu.iq.FU_type_0::SimdFloatMultAcc            0      0.00%     63.80% # Type of FU issued
system.cpu.iq.FU_type_0::SimdFloatSqrt              0      0.00%     63.80% # Type of FU issued
system.cpu.iq.FU_type_0::SimdReduceAdd              0      0.00%     63.80% # Type of FU issued
system.cpu.iq.FU_type_0::SimdReduceAlu              0      0.00%     63.80% # Type of FU issued
system.cpu.iq.FU_type_0::SimdReduceCmp              0      0.00%     63.80% # Type of FU issued
system.cpu.iq.FU_type_0::SimdFloatReduceAdd            0      0.00%     63.80% # Type of FU issued
system.cpu.iq.FU_type_0::SimdFloatReduceCmp            0      0.00%     63.80% # Type of FU issued
system.cpu.iq.FU_type_0::SimdAes                    0      0.00%     63.80% # Type of FU issued
system.cpu.iq.FU_type_0::SimdAesMix                 0      0.00%     63.80% # Type of FU issued
system.cpu.iq.FU_type_0::SimdSha1Hash               0      0.00%     63.80% # Type of FU issued
system.cpu.iq.FU_type_0::SimdSha1Hash2              0      0.00%     63.80% # Type of FU issued
system.cpu.iq.FU_type_0::SimdSha256Hash             0      0.00%     63.80% # Type of FU issued
system.cpu.iq.FU_type_0::SimdSha256Hash2            0      0.00%     63.80% # Type of FU issued
system.cpu.iq.FU_type_0::SimdShaSigma2              0      0.00%     63.80% # Type of FU issued
system.cpu.iq.FU_type_0::SimdShaSigma3              0      0.00%     63.80% # Type of FU issued
system.cpu.iq.FU_type_0::SimdPredAlu                0      0.00%     63.80% # Type of FU issued
system.cpu.iq.FU_type_0::MemRead              4031755     24.13%     87.93% # Type of FU issued
system.cpu.iq.FU_type_0::MemWrite             2016233     12.07%    100.00% # Type of FU issued
system.cpu.iq.FU_type_0::FloatMemRead              40      0.00%    100.00% # Type of FU issued
system.cpu.iq.FU_type_0::FloatMemWrite             32      0.00%    100.00% # Type of FU issued
system.cpu.iq.FU_type_0::IprAccess                  0      0.00%    100.00% # Type of FU issued
system.cpu.iq.FU_type_0::InstPrefetch               0      0.00%    100.00% # Type of FU issued
system.cpu.iq.FU_type_0::total               16708364                       # Type of FU issued
system.cpu.iq.fp_alu_accesses                     145                       # Number of floating point alu accesses
system.cpu.iq.fp_inst_queue_reads                 282                       # Number of floating instruction queue reads
system.cpu.iq.fp_inst_queue_wakeup_accesses          137                       # Number of floating instruction queue wakeup accesses
system.cpu.iq.fp_inst_queue_writes                151                       # Number of floating instruction queue writes
system.cpu.iq.fu_busy_cnt                        2284                       # FU busy when requested
system.cpu.iq.fu_busy_rate                   0.000137                       # FU busy rate (busy events/executed inst)
system.cpu.iq.fu_full::No_OpClass                   0      0.00%      0.00% # attempts to use FU when none available
system.cpu.iq.fu_full::IntAlu                    1335     58.45%     58.45% # attempts to use FU when none available
system.cpu.iq.fu_full::IntMult                      0      0.00%     58.45% # attempts to use FU when none available
system.cpu.iq.fu_full::IntDiv                       0      0.00%     58.45% # attempts to use FU when none available
system.cpu.iq.fu_full::FloatAdd                     0      0.00%     58.45% # attempts to use FU when none available
system.cpu.iq.fu_full::FloatCmp                     0      0.00%     58.45% # attempts to use FU when none available
system.cpu.iq.fu_full::FloatCvt                     0      0.00%     58.45% # attempts to use FU when none available
system.cpu.iq.fu_full::FloatMult                    0      0.00%     58.45% # attempts to use FU when none available
system.cpu.iq.fu_full::FloatMultAcc                 0      0.00%     58.45% # attempts to use FU when none available
system.cpu.iq.fu_full::FloatDiv                     0      0.00%     58.45% # attempts to use FU when none available
system.cpu.iq.fu_full::FloatMisc                    0      0.00%     58.45% # attempts to use FU when none available
system.cpu.iq.fu_full::FloatSqrt                    0      0.00%     58.45% # attempts to use FU when none available
system.cpu.iq.fu_full::SimdAdd                      0      0.00%     58.45% # attempts to use FU when none available
system.cpu.iq.fu_full::SimdAddAcc                   0      0.00%     58.45% # attempts to use FU when none available
system.cpu.iq.fu_full::SimdAlu                      0      0.00%     58.45% # attempts to use FU when none available
system.cpu.iq.fu_full::SimdCmp                      0      0.00%     58.45% # attempts to use FU when none available
system.cpu.iq.fu_full::SimdCvt                      0      0.00%     58.45% # attempts to use FU when none available
system.cpu.iq.fu_full::SimdMisc                     0      0.00%     58.45% # attempts to use FU when none available
system.cpu.iq.fu_full::SimdMult                     0      0.00%     58.45% # attempts to use FU when none available
system.cpu.iq.fu_full::SimdMultAcc                  0      0.00%     58.45% # attempts to use FU when none available
system.cpu.iq.fu_full::SimdShift                    0      0.00%     58.45% # attempts to use FU when none available
system.cpu.iq.fu_full::SimdShiftAcc                 0      0.00%     58.45% # attempts to use FU when none available
system.cpu.iq.fu_full::SimdDiv                      0      0.00%     58.45% # attempts to use FU when none available
system.cpu.iq.fu_full::SimdSqrt                     0      0.00%     58.45% # attempts to use FU when none available
system.cpu.iq.fu_full::SimdFloatAdd                 0      0.00%     58.45% # attempts to use FU when none available
system.cpu.iq.fu_full::SimdFloatAlu                 0      0.00%     58.45% # attempts to use FU when none available
system.cpu.iq.fu_full::SimdFloatCmp                 0      0.00%     58.45% # attempts to use FU when none available
system.cpu.iq.fu_full::SimdFloatCvt                 0      0.00%     58.45% # attempts to use FU when none available
system.cpu.iq.fu_full::SimdFloatDiv                 0      0.00%     58.45% # attempts to use FU when none available
system.cpu.iq.fu_full::SimdFloatMisc                0      0.00%     58.45% # attempts to use FU when none available
system.cpu.iq.fu_full::SimdFloatMult                0      0.00%     58.45% # attempts to use FU when none available
system.cpu.iq.fu_full::SimdFloatMultAcc             0      0.00%     58.45% # attempts to use FU when none available
system.cpu.iq.fu_full::SimdFloatSqrt                0      0.00%     58.45% # attempts to use FU when none available
system.cpu.iq.fu_full::SimdReduceAdd                0      0.00%     58.45% # attempts to use FU when none available
system.cpu.iq.fu_full::SimdReduceAlu                0      0.00%     58.45% # attempts to use FU when none available
system.cpu.iq.fu_full::SimdReduceCmp                0      0.00%     58.45% # attempts to use FU when none available
system.cpu.iq.fu_full::SimdFloatReduceAdd            0      0.00%     58.45% # attempts to use FU when none available
system.cpu.iq.fu_full::SimdFloatReduceCmp            0      0.00%     58.45% # attempts to use FU when none available
system.cpu.iq.fu_full::SimdAes                      0      0.00%     58.45% # attempts to use FU when none available
system.cpu.iq.fu_full::SimdAesMix                   0      0.00%     58.45% # attempts to use FU when none available
system.cpu.iq.fu_full::SimdSha1Hash                 0      0.00%     58.45% # attempts to use FU when none available
system.cpu.iq.fu_full::SimdSha1Hash2                0      0.00%     58.45% # attempts to use FU when none available
system.cpu.iq.fu_full::SimdSha256Hash               0      0.00%     58.45% # attempts to use FU when none available
system.cpu.iq.fu_full::SimdSha256Hash2              0      0.00%     58.45% # attempts to use FU when none available
system.cpu.iq.fu_full::SimdShaSigma2                0      0.00%     58.45% # attempts to use FU when none available
system.cpu.iq.fu_full::SimdShaSigma3                0      0.00%     58.45% # attempts to use FU when none available
system.cpu.iq.fu_full::SimdPredAlu                  0      0.00%     58.45% # attempts to use FU when none available
system.cpu.iq.fu_full::MemRead                    484     21.19%     79.64% # attempts to use FU when none available
system.cpu.iq.fu_full::MemWrite                   457     20.01%     99.65% # attempts to use FU when none available
system.cpu.iq.fu_full::FloatMemRead                 5      0.22%     99.87% # attempts to use FU when none available
system.cpu.iq.fu_full::FloatMemWrite                3      0.13%    100.00% # attempts to use FU when none available
system.cpu.iq.fu_full::IprAccess                    0      0.00%    100.00% # attempts to use FU when none available
system.cpu.iq.fu_full::InstPrefetch                 0      0.00%    100.00% # attempts to use FU when none available
system.cpu.iq.int_alu_accesses               16706326                       # Number of integer alu accesses
system.cpu.iq.int_inst_queue_reads          106474409                       # Number of integer instruction queue reads
system.cpu.iq.int_inst_queue_wakeup_accesses     16698500                       # Number of integer instruction queue wakeup accesses
system.cpu.iq.int_inst_queue_writes          16848401                       # Number of integer instruction queue writes
system.cpu.iq.iqInstsAdded                   16746118                       # Number of instructions added to the IQ (excludes non-spec)
system.cpu.iq.iqInstsIssued                  16708364                       # Number of instructions issued
system.cpu.iq.iqNonSpecInstsAdded                  68                       # Number of non-speculative instructions added to the IQ
system.cpu.iq.iqSquashedInstsExamined          102212                       # Number of squashed instructions iterated over during squash; mainly for profiling
system.cpu.iq.iqSquashedInstsIssued               401                       # Number of squashed instructions issued
system.cpu.iq.iqSquashedNonSpecRemoved             34                       # Number of squashed non-spec instructions that were removed
system.cpu.iq.iqSquashedOperandsExamined       163844                       # Number of squashed operands that are examined and possibly removed from graph
system.cpu.iq.issued_per_cycle::samples      73055278                       # Number of insts issued each cycle
system.cpu.iq.issued_per_cycle::mean         0.228709                       # Number of insts issued each cycle
system.cpu.iq.issued_per_cycle::stdev        0.617610                       # Number of insts issued each cycle
system.cpu.iq.issued_per_cycle::underflows            0      0.00%      0.00% # Number of insts issued each cycle
system.cpu.iq.issued_per_cycle::0            62428563     85.45%     85.45% # Number of insts issued each cycle
system.cpu.iq.issued_per_cycle::1             5828766      7.98%     93.43% # Number of insts issued each cycle
system.cpu.iq.issued_per_cycle::2             3575798      4.89%     98.33% # Number of insts issued each cycle
system.cpu.iq.issued_per_cycle::3             1196217      1.64%     99.96% # Number of insts issued each cycle
system.cpu.iq.issued_per_cycle::4                8278      0.01%     99.98% # Number of insts issued each cycle
system.cpu.iq.issued_per_cycle::5                6878      0.01%     99.99% # Number of insts issued each cycle
system.cpu.iq.issued_per_cycle::6                5608      0.01%     99.99% # Number of insts issued each cycle
system.cpu.iq.issued_per_cycle::7                3159      0.00%    100.00% # Number of insts issued each cycle
system.cpu.iq.issued_per_cycle::8                2011      0.00%    100.00% # Number of insts issued each cycle
system.cpu.iq.issued_per_cycle::overflows            0      0.00%    100.00% # Number of insts issued each cycle
system.cpu.iq.issued_per_cycle::min_value            0                       # Number of insts issued each cycle
system.cpu.iq.issued_per_cycle::max_value            8                       # Number of insts issued each cycle
system.cpu.iq.issued_per_cycle::total        73055278                       # Number of insts issued each cycle
system.cpu.iq.rate                           0.228627                       # Inst issue rate
system.cpu.iq.vec_alu_accesses                      0                       # Number of vector alu accesses
system.cpu.iq.vec_inst_queue_reads                  0                       # Number of vector instruction queue reads
system.cpu.iq.vec_inst_queue_wakeup_accesses            0                       # Number of vector instruction queue wakeup accesses
system.cpu.iq.vec_inst_queue_writes                 0                       # Number of vector instruction queue writes
system.cpu.itb.rdAccesses                           0                       # TLB accesses on read requests
system.cpu.itb.rdMisses                             0                       # TLB misses on read requests
system.cpu.itb.walker.pwrStateResidencyTicks::UNDEFINED  73081179000                       # Cumulative time (in ticks) in various power states
system.cpu.itb.wrAccesses                     1019016                       # TLB accesses on write requests
system.cpu.itb.wrMisses                           112                       # TLB misses on write requests
system.cpu.itb_walker_cache.avg_blocked_cycles::no_mshrs          nan                       # average number of cycles each access was blocked
system.cpu.itb_walker_cache.avg_blocked_cycles::no_targets          nan                       # average number of cycles each access was blocked
system.cpu.itb_walker_cache.blocked::no_mshrs            0                       # number of cycles access was blocked
system.cpu.itb_walker_cache.blocked::no_targets            0                       # number of cycles access was blocked
system.cpu.itb_walker_cache.blocked_cycles::no_mshrs            0                       # number of cycles access was blocked
system.cpu.itb_walker_cache.blocked_cycles::no_targets            0                       # number of cycles access was blocked
system.cpu.itb_walker_cache.pwrStateResidencyTicks::UNDEFINED  73081179000                       # Cumulative time (in ticks) in various power states
system.cpu.itb_walker_cache.replacements            0                       # number of replacements
system.cpu.itb_walker_cache.tags.avg_refs          nan                       # Average number of references to valid blocks.
system.cpu.itb_walker_cache.tags.data_accesses            0                       # Number of data accesses
system.cpu.itb_walker_cache.tags.pwrStateResidencyTicks::UNDEFINED  73081179000                       # Cumulative time (in ticks) in various power states
system.cpu.itb_walker_cache.tags.sampled_refs            0                       # Sample count of references to valid blocks.
system.cpu.itb_walker_cache.tags.tag_accesses            0                       # Number of tag accesses
system.cpu.itb_walker_cache.tags.tagsinuse            0                       # Cycle average of tags in use
system.cpu.itb_walker_cache.tags.total_refs            0                       # Total number of references to valid blocks.
system.cpu.itb_walker_cache.tags.warmup_cycle            0                       # Cycle when the warmup percentage was hit.
system.cpu.memDep0.conflictingLoads           3501280                       # Number of conflicting loads.
system.cpu.memDep0.conflictingStores          2000598                       # Number of conflicting stores.
system.cpu.memDep0.insertedLoads              4036956                       # Number of loads inserted to the mem dependence unit.
system.cpu.memDep0.insertedStores             2018579                       # Number of stores inserted to the mem dependence unit.
system.cpu.misc_regfile_reads                 7090023                       # number of misc regfile reads
system.cpu.misc_regfile_writes                      9                       # number of misc regfile writes
system.cpu.numCycles                         73081180                       # number of cpu cycles simulated
system.cpu.numWorkItemsCompleted                    0                       # number of work items this cpu completed
system.cpu.numWorkItemsStarted                      0                       # number of work items this cpu started
system.cpu.pwrStateResidencyTicks::ON     73081179000                       # Cumulative time (in ticks) in various power states
system.cpu.rename.BlockCycles                63436039                       # Number of cycles rename is blocking
system.cpu.rename.CommittedMaps              25178036                       # Number of HB maps that are committed
system.cpu.rename.IQFullEvents                6755355                       # Number of times rename has blocked due to IQ full
system.cpu.rename.IdleCycles                  1286969                       # Number of cycles rename is idle
system.cpu.rename.LQFullEvents                   1509                       # Number of times rename has blocked due to LQ full
system.cpu.rename.ROBFullEvents                  1748                       # Number of times rename has blocked due to ROB full
system.cpu.rename.RenameLookups              40204783                       # Number of register rename lookups that rename has made
system.cpu.rename.RenamedInsts               16766760                       # Number of instructions processed by rename
system.cpu.rename.RenamedOperands            25326097                       # Number of destination operands rename has renamed
system.cpu.rename.RunCycles                   1474869                       # Number of cycles rename is running
system.cpu.rename.SQFullEvents                  32447                       # Number of times rename has blocked due to SQ full
system.cpu.rename.SquashCycles                   3045                       # Number of cycles rename is squashing
system.cpu.rename.UnblockCycles               6852381                       # Number of cycles rename is unblocking
system.cpu.rename.UndoneMaps                   148061                       # Number of HB maps that are undone due to squashing
system.cpu.rename.fp_rename_lookups               127                       # Number of floating rename lookups
system.cpu.rename.int_rename_lookups         27921965                       # Number of integer rename lookups
system.cpu.rename.serializeStallCycles           1975                       # count of cycles rename stalled for serializing inst
system.cpu.rename.serializingInsts                 84                       # count of serializing insts renamed
system.cpu.rename.skidInsts                  12464086                       # count of insts added to the skid buffer
system.cpu.rename.tempSerializingInsts             55                       # count of temporary serializing insts renamed
system.cpu.rob.rob_reads                     89780103                       # The number of ROB reads
system.cpu.rob.rob_writes                    33508251                       # The number of ROB writes
system.cpu.timesIdled                             435                       # Number of times that the entire CPU went into an idle state and unscheduled itself
system.cpu.workload.numSyscalls                    25                       # Number of system calls
system.cpu_clk_domain.clock                      1000                       # Clock period in ticks
system.cpu_voltage_domain.voltage                   1                       # Voltage in Volts
system.l2.CleanEvict_mshr_miss_rate::.writebacks          inf                       # mshr miss rate for CleanEvict accesses
system.l2.CleanEvict_mshr_miss_rate::total          inf                       # mshr miss rate for CleanEvict accesses
system.l2.CleanEvict_mshr_misses::.writebacks            1                       # number of CleanEvict MSHR misses
system.l2.CleanEvict_mshr_misses::total             1                       # number of CleanEvict MSHR misses
system.l2.HardPFReq_avg_mshr_miss_latency::.l2.prefetcher 69320.244726                       # average HardPFReq mshr miss latency
system.l2.HardPFReq_avg_mshr_miss_latency::total 69320.244726                       # average HardPFReq mshr miss latency
system.l2.HardPFReq_mshr_miss_latency::.l2.prefetcher     16428898                       # number of HardPFReq MSHR miss cycles
system.l2.HardPFReq_mshr_miss_latency::total     16428898                       # number of HardPFReq MSHR miss cycles
system.l2.HardPFReq_mshr_miss_rate::.l2.prefetcher          inf                       # mshr miss rate for HardPFReq accesses
system.l2.HardPFReq_mshr_miss_rate::total          inf                       # mshr miss rate for HardPFReq accesses
system.l2.HardPFReq_mshr_misses::.l2.prefetcher          237                       # number of HardPFReq MSHR misses
system.l2.HardPFReq_mshr_misses::total            237                       # number of HardPFReq MSHR misses
system.l2.ReadCleanReq_accesses::.cpu.inst          899                       # number of ReadCleanReq accesses(hits+misses)
system.l2.ReadCleanReq_accesses::total            899                       # number of ReadCleanReq accesses(hits+misses)
system.l2.ReadCleanReq_avg_miss_latency::.cpu.inst 103814.400000                       # average ReadCleanReq miss latency
system.l2.ReadCleanReq_avg_miss_latency::total 103814.400000                       # average ReadCleanReq miss latency
system.l2.ReadCleanReq_avg_mshr_miss_latency::.cpu.inst 84104.669887                       # average ReadCleanReq mshr miss latency
system.l2.ReadCleanReq_avg_mshr_miss_latency::total 84104.669887                       # average ReadCleanReq mshr miss latency
system.l2.ReadCleanReq_hits::.cpu.inst            274                       # number of ReadCleanReq hits
system.l2.ReadCleanReq_hits::total                274                       # number of ReadCleanReq hits
system.l2.ReadCleanReq_miss_latency::.cpu.inst     64884000                       # number of ReadCleanReq miss cycles
system.l2.ReadCleanReq_miss_latency::total     64884000                       # number of ReadCleanReq miss cycles
system.l2.ReadCleanReq_miss_rate::.cpu.inst     0.695217                       # miss rate for ReadCleanReq accesses
system.l2.ReadCleanReq_miss_rate::total      0.695217                       # miss rate for ReadCleanReq accesses
system.l2.ReadCleanReq_misses::.cpu.inst          625                       # number of ReadCleanReq misses
system.l2.ReadCleanReq_misses::total              625                       # number of ReadCleanReq misses
system.l2.ReadCleanReq_mshr_hits::.cpu.inst            4                       # number of ReadCleanReq MSHR hits
system.l2.ReadCleanReq_mshr_hits::total             4                       # number of ReadCleanReq MSHR hits
system.l2.ReadCleanReq_mshr_miss_latency::.cpu.inst     52229000                       # number of ReadCleanReq MSHR miss cycles
system.l2.ReadCleanReq_mshr_miss_latency::total     52229000                       # number of ReadCleanReq MSHR miss cycles
system.l2.ReadCleanReq_mshr_miss_rate::.cpu.inst     0.690768                       # mshr miss rate for ReadCleanReq accesses
system.l2.ReadCleanReq_mshr_miss_rate::total     0.690768                       # mshr miss rate for ReadCleanReq accesses
system.l2.ReadCleanReq_mshr_misses::.cpu.inst          621                       # number of ReadCleanReq MSHR misses
system.l2.ReadCleanReq_mshr_misses::total          621                       # number of ReadCleanReq MSHR misses
system.l2.ReadExReq_accesses::.cpu.data           440                       # number of ReadExReq accesses(hits+misses)
system.l2.ReadExReq_accesses::total               440                       # number of ReadExReq accesses(hits+misses)
system.l2.ReadExReq_avg_miss_latency::.cpu.data 104381.861575                       # average ReadExReq miss latency
system.l2.ReadExReq_avg_miss_latency::total 104381.861575                       # average ReadExReq miss latency
system.l2.ReadExReq_avg_mshr_miss_latency::.cpu.data 84381.861575                       # average ReadExReq mshr miss latency
system.l2.ReadExReq_avg_mshr_miss_latency::total 84381.861575                       # average ReadExReq mshr miss latency
system.l2.ReadExReq_hits::.cpu.data                21                       # number of ReadExReq hits
system.l2.ReadExReq_hits::total                    21                       # number of ReadExReq hits
system.l2.ReadExReq_miss_latency::.cpu.data     43736000                       # number of ReadExReq miss cycles
system.l2.ReadExReq_miss_latency::total      43736000                       # number of ReadExReq miss cycles
system.l2.ReadExReq_miss_rate::.cpu.data     0.952273                       # miss rate for ReadExReq accesses
system.l2.ReadExReq_miss_rate::total         0.952273                       # miss rate for ReadExReq accesses
system.l2.ReadExReq_misses::.cpu.data             419                       # number of ReadExReq misses
system.l2.ReadExReq_misses::total                 419                       # number of ReadExReq misses
system.l2.ReadExReq_mshr_miss_latency::.cpu.data     35356000                       # number of ReadExReq MSHR miss cycles
system.l2.ReadExReq_mshr_miss_latency::total     35356000                       # number of ReadExReq MSHR miss cycles
system.l2.ReadExReq_mshr_miss_rate::.cpu.data     0.952273                       # mshr miss rate for ReadExReq accesses
system.l2.ReadExReq_mshr_miss_rate::total     0.952273                       # mshr miss rate for ReadExReq accesses
system.l2.ReadExReq_mshr_misses::.cpu.data          419                       # number of ReadExReq MSHR misses
system.l2.ReadExReq_mshr_misses::total            419                       # number of ReadExReq MSHR misses
system.l2.ReadSharedReq_accesses::.cpu.data       493430                       # number of ReadSharedReq accesses(hits+misses)
[...]
system.mem_ctrls.wrQLenPdf::26                     28                       # What write queue length does an incoming req see
system.mem_ctrls.wrQLenPdf::27                     28                       # What write queue length does an incoming req see
system.mem_ctrls.wrQLenPdf::28                     28                       # What write queue length does an incoming req see
system.mem_ctrls.wrQLenPdf::29                     28                       # What write queue length does an incoming req see
system.mem_ctrls.wrQLenPdf::30                     28                       # What write queue length does an incoming req see
system.mem_ctrls.wrQLenPdf::31                     28                       # What write queue length does an incoming req see
system.mem_ctrls.wrQLenPdf::32                     28                       # What write queue length does an incoming req see
system.mem_ctrls.wrQLenPdf::33                      0                       # What write queue length does an incoming req see
system.mem_ctrls.wrQLenPdf::34                      0                       # What write queue length does an incoming req see
system.mem_ctrls.wrQLenPdf::35                      0                       # What write queue length does an incoming req see
system.mem_ctrls.wrQLenPdf::36                      0                       # What write queue length does an incoming req see
system.mem_ctrls.wrQLenPdf::37                      0                       # What write queue length does an incoming req see
system.mem_ctrls.wrQLenPdf::38                      0                       # What write queue length does an incoming req see
system.mem_ctrls.wrQLenPdf::39                      0                       # What write queue length does an incoming req see
system.mem_ctrls.wrQLenPdf::40                      0                       # What write queue length does an incoming req see
system.mem_ctrls.wrQLenPdf::41                      0                       # What write queue length does an incoming req see
system.mem_ctrls.wrQLenPdf::42                      0                       # What write queue length does an incoming req see
system.mem_ctrls.wrQLenPdf::43                      0                       # What write queue length does an incoming req see
system.mem_ctrls.wrQLenPdf::44                      0                       # What write queue length does an incoming req see
system.mem_ctrls.wrQLenPdf::45                      0                       # What write queue length does an incoming req see
system.mem_ctrls.wrQLenPdf::46                      0                       # What write queue length does an incoming req see
system.mem_ctrls.wrQLenPdf::47                      0                       # What write queue length does an incoming req see
system.mem_ctrls.wrQLenPdf::48                      0                       # What write queue length does an incoming req see
system.mem_ctrls.wrQLenPdf::49                      0                       # What write queue length does an incoming req see
system.mem_ctrls.wrQLenPdf::50                      0                       # What write queue length does an incoming req see
system.mem_ctrls.wrQLenPdf::51                      0                       # What write queue length does an incoming req see
system.mem_ctrls.wrQLenPdf::52                      0                       # What write queue length does an incoming req see
system.mem_ctrls.wrQLenPdf::53                      0                       # What write queue length does an incoming req see
system.mem_ctrls.wrQLenPdf::54                      0                       # What write queue length does an incoming req see
system.mem_ctrls.wrQLenPdf::55                      0                       # What write queue length does an incoming req see
system.mem_ctrls.wrQLenPdf::56                      0                       # What write queue length does an incoming req see
system.mem_ctrls.wrQLenPdf::57                      0                       # What write queue length does an incoming req see
system.mem_ctrls.wrQLenPdf::58                      0                       # What write queue length does an incoming req see
system.mem_ctrls.wrQLenPdf::59                      0                       # What write queue length does an incoming req see
system.mem_ctrls.wrQLenPdf::60                      0                       # What write queue length does an incoming req see
system.mem_ctrls.wrQLenPdf::61                      0                       # What write queue length does an incoming req see
system.mem_ctrls.wrQLenPdf::62                      0                       # What write queue length does an incoming req see
system.mem_ctrls.wrQLenPdf::63                      0                       # What write queue length does an incoming req see
system.mem_ctrls.writeBursts                      480                       # Number of DRAM write bursts, including those merged in the write queue
system.mem_ctrls.writePktSize::0                    0                       # Write request sizes (log2)
system.mem_ctrls.writePktSize::1                    0                       # Write request sizes (log2)
system.mem_ctrls.writePktSize::2                    0                       # Write request sizes (log2)
system.mem_ctrls.writePktSize::3                    0                       # Write request sizes (log2)
system.mem_ctrls.writePktSize::4                    0                       # Write request sizes (log2)
system.mem_ctrls.writePktSize::5                    0                       # Write request sizes (log2)
system.mem_ctrls.writePktSize::6                  480                       # Write request sizes (log2)
system.mem_ctrls.writeReqs                        480                       # Number of write requests accepted
system.mem_ctrls.writeRowHitRate                74.79                       # Row buffer hit rate for writes
system.mem_ctrls.writeRowHits                     359                       # Number of row buffer hits during writes
system.mem_ctrls_0.actBackEnergy           6072491010                       # Energy for active background per rank (pJ)
system.mem_ctrls_0.actEnergy               1610748300                       # Energy for activate commands per rank (pJ)
system.mem_ctrls_0.actPowerDownEnergy     26491106820                       # Energy for active power-down per rank (pJ)
system.mem_ctrls_0.averagePower            590.025265                       # Core power per rank (mW)
system.mem_ctrls_0.memoryStateTime::IDLE     51951000                       # Time in different power states
system.mem_ctrls_0.memoryStateTime::REF    2440100000                       # Time in different power states
system.mem_ctrls_0.memoryStateTime::SREF            0                       # Time in different power states
system.mem_ctrls_0.memoryStateTime::PRE_PDN   1337167750                       # Time in different power states
system.mem_ctrls_0.memoryStateTime::ACT   11150532496                       # Time in different power states
system.mem_ctrls_0.memoryStateTime::ACT_PDN  58101427754                       # Time in different power states
system.mem_ctrls_0.preBackEnergy            127490400                       # Energy for precharge background per rank (pJ)
system.mem_ctrls_0.preEnergy                856102665                       # Energy for precharge commands per rank (pJ)
system.mem_ctrls_0.prePowerDownEnergy       513705600                       # Energy for precharge power-down per rank (pJ)
system.mem_ctrls_0.readEnergy              1677550140                       # Energy for read commands per rank (pJ)
system.mem_ctrls_0.refreshEnergy         5768396400.000001                       # Energy for refresh commands per rank (pJ)
system.mem_ctrls_0.selfRefreshEnergy                0                       # Energy for self refresh per rank (pJ)
system.mem_ctrls_0.totalEnergy            43119741975                       # Total energy per rank (pJ)
system.mem_ctrls_0.totalIdleTime          59438595504                       # Total Idle time Per DRAM Rank
system.mem_ctrls_0.writeEnergy                2150640                       # Energy for write commands per rank (pJ)
system.mem_ctrls_1.actBackEnergy           6071764260                       # Energy for active background per rank (pJ)
system.mem_ctrls_1.actEnergy               1608813360                       # Energy for activate commands per rank (pJ)
system.mem_ctrls_1.actPowerDownEnergy     26492909730                       # Energy for active power-down per rank (pJ)
system.mem_ctrls_1.averagePower            589.964475                       # Core power per rank (mW)
system.mem_ctrls_1.memoryStateTime::IDLE     53592000                       # Time in different power states
system.mem_ctrls_1.memoryStateTime::REF    2440100000                       # Time in different power states
system.mem_ctrls_1.memoryStateTime::SREF            0                       # Time in different power states
system.mem_ctrls_1.memoryStateTime::PRE_PDN   1333091000                       # Time in different power states
system.mem_ctrls_1.memoryStateTime::ACT   11148529496                       # Time in different power states
system.mem_ctrls_1.memoryStateTime::ACT_PDN  58105866504                       # Time in different power states
system.mem_ctrls_1.preBackEnergy            128148000                       # Energy for precharge background per rank (pJ)
system.mem_ctrls_1.preEnergy                855078015                       # Energy for precharge commands per rank (pJ)
system.mem_ctrls_1.prePowerDownEnergy       512141760                       # Energy for precharge power-down per rank (pJ)
system.mem_ctrls_1.readEnergy              1677828600                       # Energy for read commands per rank (pJ)
system.mem_ctrls_1.refreshEnergy         5768396400.000001                       # Energy for refresh commands per rank (pJ)
system.mem_ctrls_1.selfRefreshEnergy                0                       # Energy for self refresh per rank (pJ)
system.mem_ctrls_1.totalEnergy            43115299365                       # Total energy per rank (pJ)
system.mem_ctrls_1.totalIdleTime          59438857004                       # Total Idle time Per DRAM Rank
system.mem_ctrls_1.writeEnergy                 219240                       # Energy for write commands per rank (pJ)
system.membus.pkt_count_system.l2.mem_side::system.mem_ctrls.port      1405529                       # Packet count per connected master and slave (bytes)
system.membus.pkt_count_system.l2.mem_side::total      1405529                       # Packet count per connected master and slave (bytes)
system.membus.pkt_count::total                1405529                       # Packet count per connected master and slave (bytes)
system.membus.pkt_size_system.l2.mem_side::system.mem_ctrls.port     30107264                       # Cumulative packet size per connected master and slave (bytes)
system.membus.pkt_size_system.l2.mem_side::total     30107264                       # Cumulative packet size per connected master and slave (bytes)
system.membus.pkt_size::total                30107264                       # Cumulative packet size per connected master and slave (bytes)
system.membus.pwrStateResidencyTicks::UNDEFINED  73081179000                       # Cumulative time (in ticks) in various power states
system.membus.reqLayer2.occupancy           937520982                       # Layer occupancy (ticks)
system.membus.reqLayer2.utilization               1.3                       # Layer utilization (%)
system.membus.respLayer1.occupancy         2655004497                       # Layer occupancy (ticks)
system.membus.respLayer1.utilization              3.6                       # Layer utilization (%)
system.membus.snoopTraffic                          0                       # Total snoop traffic (bytes)
system.membus.snoop_fanout::samples            469947                       # Request fanout histogram
system.membus.snoop_fanout::mean                    0                       # Request fanout histogram
system.membus.snoop_fanout::stdev                   0                       # Request fanout histogram
system.membus.snoop_fanout::underflows              0      0.00%      0.00% # Request fanout histogram
system.membus.snoop_fanout::0                  469947    100.00%    100.00% # Request fanout histogram
system.membus.snoop_fanout::1                       0      0.00%    100.00% # Request fanout histogram
system.membus.snoop_fanout::overflows               0      0.00%    100.00% # Request fanout histogram
system.membus.snoop_fanout::min_value               0                       # Request fanout histogram
system.membus.snoop_fanout::max_value               0                       # Request fanout histogram
system.membus.snoop_fanout::total              469947                       # Request fanout histogram
system.membus.snoop_filter.hit_multi_requests            0                       # Number of requests hitting in the snoop filter with multiple (>1) holders of the requested data.
system.membus.snoop_filter.hit_multi_snoops            0                       # Number of snoops hitting in the snoop filter with multiple (>1) holders of the requested data.
system.membus.snoop_filter.hit_single_requests       465636                       # Number of requests hitting in the snoop filter with a single holder of the requested data.
system.membus.snoop_filter.hit_single_snoops            0                       # Number of snoops hitting in the snoop filter with a single holder of the requested data.
system.membus.snoop_filter.tot_requests        935583                       # Total number of requests made to the snoop filter.
system.membus.snoop_filter.tot_snoops               0                       # Total number of snoops made to the snoop filter.
system.membus.snoops                                0                       # Total snoops (count)
system.membus.trans_dist::ReadResp             469527                       # Transaction distribution
system.membus.trans_dist::WritebackDirty          480                       # Transaction distribution
system.membus.trans_dist::CleanEvict           465156                       # Transaction distribution
system.membus.trans_dist::ReadExReq               419                       # Transaction distribution
system.membus.trans_dist::ReadExResp              419                       # Transaction distribution
system.membus.trans_dist::ReadSharedReq        469528                       # Transaction distribution
system.tol2bus.pkt_count_system.cpu.icache.mem_side::system.l2.cpu_side         2439                       # Packet count per connected master and slave (bytes)
system.tol2bus.pkt_count_system.cpu.dcache.mem_side::system.l2.cpu_side      1480582                       # Packet count per connected master and slave (bytes)
system.tol2bus.pkt_count::total               1483021                       # Packet count per connected master and slave (bytes)
system.tol2bus.pkt_size_system.cpu.icache.mem_side::system.l2.cpu_side        98560                       # Cumulative packet size per connected master and slave (bytes)
system.tol2bus.pkt_size_system.cpu.dcache.mem_side::system.l2.cpu_side     31642688                       # Cumulative packet size per connected master and slave (bytes)
system.tol2bus.pkt_size::total               31741248                       # Cumulative packet size per connected master and slave (bytes)
system.tol2bus.pwrStateResidencyTicks::UNDEFINED  73081179000                       # Cumulative time (in ticks) in various power states
system.tol2bus.reqLayer0.occupancy          990637000                       # Layer occupancy (ticks)
system.tol2bus.reqLayer0.utilization              1.4                       # Layer utilization (%)
system.tol2bus.respLayer0.occupancy           2694999                       # Layer occupancy (ticks)
system.tol2bus.respLayer0.utilization             0.0                       # Layer utilization (%)
system.tol2bus.respLayer1.occupancy        1481604000                       # Layer occupancy (ticks)
system.tol2bus.respLayer1.utilization             2.0                       # Layer utilization (%)
system.tol2bus.snoopTraffic                     30720                       # Total snoop traffic (bytes)
system.tol2bus.snoop_fanout::samples           960994                       # Request fanout histogram
system.tol2bus.snoop_fanout::mean            0.000282                       # Request fanout histogram
system.tol2bus.snoop_fanout::stdev           0.016790                       # Request fanout histogram
system.tol2bus.snoop_fanout::underflows             0      0.00%      0.00% # Request fanout histogram
system.tol2bus.snoop_fanout::0                 960723     99.97%     99.97% # Request fanout histogram
system.tol2bus.snoop_fanout::1                    271      0.03%    100.00% # Request fanout histogram
system.tol2bus.snoop_fanout::2                      0      0.00%    100.00% # Request fanout histogram
system.tol2bus.snoop_fanout::3                      0      0.00%    100.00% # Request fanout histogram
system.tol2bus.snoop_fanout::4                      0      0.00%    100.00% # Request fanout histogram
system.tol2bus.snoop_fanout::overflows              0      0.00%    100.00% # Request fanout histogram
system.tol2bus.snoop_fanout::min_value              0                       # Request fanout histogram
system.tol2bus.snoop_fanout::max_value              1                       # Request fanout histogram
system.tol2bus.snoop_fanout::total             960994                       # Request fanout histogram
system.tol2bus.snoop_filter.hit_multi_requests            9                       # Number of requests hitting in the snoop filter with multiple (>1) holders of the requested data.
system.tol2bus.snoop_filter.hit_multi_snoops            0                       # Number of snoops hitting in the snoop filter with multiple (>1) holders of the requested data.
system.tol2bus.snoop_filter.hit_single_requests       493486                       # Number of requests hitting in the snoop filter with a single holder of the requested data.
system.tol2bus.snoop_filter.hit_single_snoops          262                       # Number of snoops hitting in the snoop filter with a single holder of the requested data.
system.tol2bus.snoop_filter.tot_requests       988255                       # Total number of requests made to the snoop filter.
system.tol2bus.snoop_filter.tot_snoops            262                       # Total number of snoops made to the snoop filter.
system.tol2bus.snoops                          466225                       # Total snoops (count)
system.tol2bus.trans_dist::ReadResp            494326                       # Transaction distribution
system.tol2bus.trans_dist::WritebackDirty         1029                       # Transaction distribution
system.tol2bus.trans_dist::WritebackClean          642                       # Transaction distribution
system.tol2bus.trans_dist::CleanEvict          957713                       # Transaction distribution
system.tol2bus.trans_dist::HardPFReq              327                       # Transaction distribution
system.tol2bus.trans_dist::ReadExReq              440                       # Transaction distribution
system.tol2bus.trans_dist::ReadExResp             440                       # Transaction distribution
system.tol2bus.trans_dist::ReadCleanReq           899                       # Transaction distribution
system.tol2bus.trans_dist::ReadSharedReq       493430                       # Transaction distribution
system.voltage_domain.voltage                       1                       # Voltage in Volts

---------- End Simulation Statistics   ----------
