Running SPEC test: omnetpp

/home/victorfu/cpu2017/benchspec/CPU/520.omnetpp_r
gem5 Simulator System.  http://gem5.org
gem5 is copyrighted software; use the --copyright option for details.

gem5 compiled Jun 12 2019 22:55:31
gem5 started Jun 14 2019 10:01:01
gem5 executing on tetracosa.cs.ucla.edu, pid 87562
command line: /home/victorfu/finalproject/gem5/build/X86/gem5.opt --outdir=/home/victorfu/output/bench_spec/simple/omnetpp /home/victorfu/finalproject/gem5/configs/example/se.py --caches --l2cache --cmd=omnetpp_r_base.victor_jun10-m64 --l1i_size=16kB --l1d_size=64kB --l2_size=256kB --cpu-type=DerivO3CPU --mem-type=DDR3_1600_8x8 --cpu-clock=1GHz --maxinsts=100000000 '--options=-c General -r' --l2-hwp-type=TaggedPrefetcher --mlu_pf_type=perceptron

info: Standard input is not a terminal, disabling listeners.
Warning: l2-hwp-type is set ( TaggedPrefetcher ), but the current l2 has a default Hardware Prefetcher of type <class 'm5.params.NullSimObject'> , using the specified by the flag option.
MLU-Prefetch Perceptron Enabled.
Global frequency set at 1000000000000 ticks per second
warn: DRAM device capacity (8192 Mbytes) does not match the address range assigned (512 Mbytes)
PerceptronUnit is in mode: PC_DELTA_ADDR
warn: Sockets disabled, not accepting gdb connections
**** REAL SIMULATION ****
info: Entering event queue @ 0.  Starting simulation...
new weight for 0 is: -1
new weight for 1 is: -138932384
new weight for 2 is: 138932496
new weight for 0 is: -2
new weight for 1 is: -138932404
new weight for 2 is: 138932516
info: Increasing stack size by one page.
info: Increasing stack size by one page.
warn: ignoring syscall access(...)
warn: ignoring syscall mprotect(...)
warn: ignoring syscall mprotect(...)
warn: ignoring syscall mprotect(...)
warn: ignoring syscall mprotect(...)
warn: ignoring syscall mprotect(...)
warn: ignoring syscall mprotect(...)
warn: ignoring syscall mprotect(...)
warn: ignoring syscall mprotect(...)
warn: ignoring syscall mprotect(...)
warn: ignoring syscall mprotect(...)
new weight for 0 is: -3
new weight for 1 is: -164135541
new weight for 2 is: 164135629
new weight for 0 is: -4
new weight for 1 is: -164135541
new weight for 2 is: 164135629
new weight for 0 is: -5
new weight for 1 is: -164122103
new weight for 2 is: 164122227
new weight for 0 is: -6
new weight for 1 is: -164122103
new weight for 2 is: 164122227
new weight for 0 is: -7
new weight for 1 is: -164122103
new weight for 2 is: 164122227
new weight for 0 is: -8
new weight for 1 is: -164122103
new weight for 2 is: 164122227
new weight for 0 is: -9
new weight for 1 is: -163226303
new weight for 2 is: 163226415
new weight for 0 is: -10
new weight for 1 is: -163226303
new weight for 2 is: 163226415
new weight for 0 is: -11
new weight for 1 is: 1966060
new weight for 2 is: -1965980
new weight for 0 is: -12
new weight for 1 is: 1966100
new weight for 2 is: -1966020
new weight for 0 is: -13
new weight for 1 is: -136436419
new weight for 2 is: 136436508
new weight for 0 is: -14
new weight for 1 is: -136436459
new weight for 2 is: 136436548
new weight for 0 is: -15
new weight for 1 is: -163571175
new weight for 2 is: 163571303
new weight for 0 is: -16
new weight for 1 is: -163571175
new weight for 2 is: 163571303
new weight for 0 is: -17
new weight for 1 is: -164074441
new weight for 2 is: 164074561
new weight for 0 is: -18
new weight for 1 is: -164032899
new weight for 2 is: 164033027
new weight for 0 is: -19
new weight for 1 is: -164032899
new weight for 2 is: 164033027
new weight for 0 is: -20
new weight for 1 is: -164032899
new weight for 2 is: 164033027
new weight for 0 is: -21
new weight for 1 is: -164032899
new weight for 2 is: 164033027
new weight for 0 is: -21
new weight for 1 is: 4194281
new weight for 2 is: -4194153
new weight for 0 is: -21
new weight for 1 is: 4194321
new weight for 2 is: -4194193
new weight for 0 is: -21
new weight for 1 is: 4194321
new weight for 2 is: -4194193
new weight for 0 is: -21
new weight for 1 is: 4194321
new weight for 2 is: -4194193
new weight for 0 is: -21
new weight for 1 is: -142266348
new weight for 2 is: 142266476
new weight for 0 is: -21
new weight for 1 is: -142266388
new weight for 2 is: 142266516
new weight for 0 is: -21
new weight for 1 is: -142266388
new weight for 2 is: 142266516
new weight for 0 is: -21
new weight for 1 is: -142266388
new weight for 2 is: 142266516
new weight for 0 is: -21
new weight for 1 is: 2694227
new weight for 2 is: -2694099
new weight for 0 is: -21
new weight for 1 is: -160260077
new weight for 2 is: 160260205
new weight for 0 is: -21
new weight for 1 is: 4194281
new weight for 2 is: -4194153
new weight for 0 is: -21
new weight for 1 is: 4194321
new weight for 2 is: -4194193
new weight for 0 is: -21
new weight for 1 is: 4194321
new weight for 2 is: -4194193
new weight for 0 is: -21
new weight for 1 is: 4194321
new weight for 2 is: -4194193
new weight for 0 is: -21
new weight for 1 is: -142266349
new weight for 2 is: 142266477
new weight for 0 is: -21
new weight for 1 is: -142266389
new weight for 2 is: 142266517
new weight for 0 is: -21
new weight for 1 is: 4194284
new weight for 2 is: -4194156
new weight for 0 is: -21
new weight for 1 is: 4194324
new weight for 2 is: -4194196
new weight for 0 is: -21
new weight for 1 is: -136408875
new weight for 2 is: 136408982
new weight for 0 is: -21
new weight for 1 is: -136408915
new weight for 2 is: 136409022
new weight for 0 is: -21
new weight for 1 is: -136408915
new weight for 2 is: 136409022
new weight for 0 is: -21
new weight for 1 is: -136408915
new weight for 2 is: 136409022
new weight for 0 is: -21
new weight for 1 is: -163738849
new weight for 2 is: 163738977
new weight for 0 is: -21
new weight for 1 is: -163738849
new weight for 2 is: 163738977
new weight for 0 is: -21
new weight for 1 is: -163739233
new weight for 2 is: 163739361
new weight for 0 is: -21
new weight for 1 is: -163739233
new weight for 2 is: 163739361
new weight for 0 is: -21
new weight for 1 is: -163739425
new weight for 2 is: 163739553
new weight for 0 is: -21
new weight for 1 is: -163739425
new weight for 2 is: 163739553
new weight for 0 is: -21
new weight for 1 is: -163739617
new weight for 2 is: 163739745
new weight for 0 is: -21
new weight for 1 is: -163739617
new weight for 2 is: 163739745
new weight for 0 is: -21
new weight for 1 is: -163739809
new weight for 2 is: 163739937
new weight for 0 is: -21
new weight for 1 is: -163739809
new weight for 2 is: 163739937
new weight for 0 is: -21
new weight for 1 is: -163739809
new weight for 2 is: 163739937
new weight for 0 is: -21
new weight for 1 is: -163739809
new weight for 2 is: 163739937
new weight for 0 is: -21
new weight for 1 is: -163737775
new weight for 2 is: 163737847
new weight for 0 is: -21
new weight for 1 is: -163737775
new weight for 2 is: 163737847
new weight for 0 is: -21
new weight for 1 is: -163774868
new weight for 2 is: 163774988
new weight for 0 is: -21
new weight for 1 is: -163774868
new weight for 2 is: 163774988
new weight for 0 is: -21
new weight for 1 is: 4194332
new weight for 2 is: -4194204
new weight for 0 is: -21
new weight for 1 is: 4194372
new weight for 2 is: -4194244
new weight for 0 is: -21
new weight for 1 is: 4194372
new weight for 2 is: -4194244
new weight for 0 is: -21
new weight for 1 is: 4194372
new weight for 2 is: -4194244
new weight for 0 is: -21
new weight for 1 is: -138674855
new weight for 2 is: 138674935
new weight for 0 is: -21
new weight for 1 is: -138674895
new weight for 2 is: 138674975
new weight for 0 is: -21
new weight for 1 is: -138674895
new weight for 2 is: 138674975
new weight for 0 is: -21
new weight for 1 is: 1918867
new weight for 2 is: -1918779
new weight for 0 is: -21
new weight for 1 is: 1918907
new weight for 2 is: -1918819
new weight for 0 is: -21
new weight for 1 is: -160260076
new weight for 2 is: 160260204
new weight for 0 is: -21
new weight for 1 is: -160260116
new weight for 2 is: 160260244
new weight for 0 is: -21
new weight for 1 is: -160260116
new weight for 2 is: 160260244
new weight for 0 is: -21
new weight for 1 is: -160260116
new weight for 2 is: 160260244
new weight for 0 is: -21
new weight for 1 is: -160260116
new weight for 2 is: 160260244
new weight for 0 is: -21
new weight for 1 is: -163722479
new weight for 2 is: 163722551
new weight for 0 is: -21
new weight for 1 is: -163722479
new weight for 2 is: 163722551
new weight for 0 is: -21
new weight for 1 is: -163722036
new weight for 2 is: 163722164
new weight for 0 is: -21
new weight for 1 is: -163722036
new weight for 2 is: 163722164
new weight for 0 is: -21
new weight for 1 is: -163722228
new weight for 2 is: 163722356
new weight for 0 is: -21
new weight for 1 is: -163722228
new weight for 2 is: 163722356
new weight for 0 is: -21
new weight for 1 is: -163722228
new weight for 2 is: 163722356
new weight for 0 is: -21
new weight for 1 is: -163722228
new weight for 2 is: 163722356
new weight for 0 is: -21
new weight for 1 is: -163722228
new weight for 2 is: 163722356
new weight for 0 is: -21
new weight for 1 is: -163722228
new weight for 2 is: 163722356
new weight for 0 is: -21
new weight for 1 is: 2670691
new weight for 2 is: -2670611
new weight for 0 is: -21
new weight for 1 is: 2670731
new weight for 2 is: -2670651
new weight for 0 is: -21
new weight for 1 is: -160260076
new weight for 2 is: 160260204
new weight for 0 is: -21
new weight for 1 is: -160260116
new weight for 2 is: 160260244
new weight for 0 is: -21
new weight for 1 is: 4194283
new weight for 2 is: -4194155
new weight for 0 is: -21
new weight for 1 is: 4194323
new weight for 2 is: -4194195
new weight for 0 is: -21
new weight for 1 is: -136407723
new weight for 2 is: 136407830
new weight for 0 is: -21
new weight for 1 is: 4194284
new weight for 2 is: -4194156
new weight for 0 is: -21
new weight for 1 is: 4194324
new weight for 2 is: -4194196
new weight for 0 is: -21
new weight for 1 is: 4194324
new weight for 2 is: -4194196
new weight for 0 is: -21
new weight for 1 is: 4194324
new weight for 2 is: -4194196
new weight for 0 is: -21
new weight for 1 is: 4194324
new weight for 2 is: -4194196
new weight for 0 is: -21
new weight for 1 is: -142266348
new weight for 2 is: 142266476
new weight for 0 is: -21
new weight for 1 is: -142266388
new weight for 2 is: 142266516
new weight for 0 is: -21
new weight for 1 is: -142266388
new weight for 2 is: 142266516
new weight for 0 is: -21
new weight for 1 is: -142266388
new weight for 2 is: 142266516
new weight for 0 is: -21
new weight for 1 is: 4194284
new weight for 2 is: -4194156
new weight for 0 is: -21
new weight for 1 is: -136432801
new weight for 2 is: 136432924
new weight for 0 is: -21
new weight for 1 is: 4194284
new weight for 2 is: -4194156
new weight for 0 is: -21
new weight for 1 is: 4194324
new weight for 2 is: -4194196
new weight for 0 is: -21
new weight for 1 is: 4194324
new weight for 2 is: -4194196
new weight for 0 is: -21
new weight for 1 is: 4194324
new weight for 2 is: -4194196
new weight for 0 is: -21
new weight for 1 is: 4194324
new weight for 2 is: -4194196
new weight for 0 is: -21
new weight for 1 is: 4194324
new weight for 2 is: -4194196
new weight for 0 is: -21
new weight for 1 is: 4194324
new weight for 2 is: -4194196
new weight for 0 is: -21
new weight for 1 is: 4194324
new weight for 2 is: -4194196
new weight for 0 is: -21
new weight for 1 is: 4194324
new weight for 2 is: -4194196
new weight for 0 is: -21
new weight for 1 is: -160260077
new weight for 2 is: 160260205
new weight for 0 is: -21
new weight for 1 is: 4194282
new weight for 2 is: -4194154
new weight for 0 is: -21
new weight for 1 is: 4194322
new weight for 2 is: -4194194
new weight for 0 is: -21
new weight for 1 is: -160260076
new weight for 2 is: 160260204
new weight for 0 is: -21
new weight for 1 is: -160260116
new weight for 2 is: 160260244
new weight for 0 is: -21
new weight for 1 is: -163778007
new weight for 2 is: 163778095
new weight for 0 is: -21
new weight for 1 is: -163778007
new weight for 2 is: 163778095
new weight for 0 is: -21
new weight for 1 is: 4194284
new weight for 2 is: -4194156
new weight for 0 is: -21
new weight for 1 is: 4194324
new weight for 2 is: -4194196
new weight for 0 is: -21
new weight for 1 is: 4194324
new weight for 2 is: -4194196
new weight for 0 is: -21
new weight for 1 is: 4194324
new weight for 2 is: -4194196
new weight for 0 is: -21
new weight for 1 is: 4194324
new weight for 2 is: -4194196
new weight for 0 is: -21
new weight for 1 is: 4194324
new weight for 2 is: -4194196
new weight for 0 is: -21
new weight for 1 is: 4194324
new weight for 2 is: -4194196
new weight for 0 is: -21
new weight for 1 is: 4194324
new weight for 2 is: -4194196
new weight for 0 is: -21
new weight for 1 is: 4194324
new weight for 2 is: -4194196
new weight for 0 is: -21
new weight for 1 is: 4194324
new weight for 2 is: -4194196
new weight for 0 is: -21
new weight for 1 is: 4194324
new weight for 2 is: -4194196
new weight for 0 is: -21
new weight for 1 is: 4194324
new weight for 2 is: -4194196
new weight for 0 is: -21
new weight for 1 is: 4194324
new weight for 2 is: -4194196
new weight for 0 is: -21
new weight for 1 is: -136408755
new weight for 2 is: 136408854
new weight for 0 is: -21
new weight for 1 is: 4194292
new weight for 2 is: -4194164
new weight for 0 is: -21
new weight for 1 is: 4194332
new weight for 2 is: -4194204
new weight for 0 is: -21
new weight for 1 is: 4194332
new weight for 2 is: -4194204
new weight for 0 is: -21
new weight for 1 is: 4194332
new weight for 2 is: -4194204
new weight for 0 is: -21
new weight for 1 is: 4194332
new weight for 2 is: -4194204
new weight for 0 is: -21
new weight for 1 is: 4194332
new weight for 2 is: -4194204
new weight for 0 is: -21
new weight for 1 is: 4194332
new weight for 2 is: -4194204
new weight for 0 is: -21
new weight for 1 is: 4194332
new weight for 2 is: -4194204
new weight for 0 is: -21
new weight for 1 is: 4194332
new weight for 2 is: -4194204
new weight for 0 is: -21
new weight for 1 is: 4194332
new weight for 2 is: -4194204
new weight for 0 is: -21
new weight for 1 is: -160260076
new weight for 2 is: 160260204
new weight for 0 is: -21
new weight for 1 is: -163780967
new weight for 2 is: 163781039
new weight for 0 is: -21
new weight for 1 is: -163780967
new weight for 2 is: 163781039
new weight for 0 is: -21
new weight for 1 is: -1637OMNeT++ Discrete Event Simulation  (C) 1992-2008 Andras Varga, OpenSim Ltd.
Version: 4.0, build: 090310-10709, edition: Academic Public License -- NOT FOR COMMERCIAL USE
See the license for distribution terms and warranty disclaimer
81575
new weight for 2 is: 163781679
new weight for 0 is: -21
new weight for 1 is: -163781575
new weight for 2 is: 163781679
new weight for 0 is: -21
new weight for 1 is: -163781575
new weight for 2 is: 163781679
new weight for 0 is: -21
new weight for 1 is: -163781575
new weight for 2 is: 163781679
new weight for 0 is: -21
new weight for 1 is: -163782631
new weight for 2 is: 163782703
new weight for 0 is: -21
new weight for 1 is: -163731572
new weight for 2 is: 163731700
new weight for 0 is: -21
new weight for 1 is: -163731572
new weight for 2 is: 163731700
new weight for 0 is: -21
new weight for 1 is: -163731956
new weight for 2 is: 163732084
new weight for 0 is: -21
new weight for 1 is: -163731956
new weight for 2 is: 163732084
new weight for 0 is: -21
new weight for 1 is: 4194281
new weight for 2 is: -4194153
new weight for 0 is: -21
new weight for 1 is: 4194321
new weight for 2 is: -4194193
new weight for 0 is: -21
new weight for 1 is: 4194321
new weight for 2 is: -4194193
new weight for 0 is: -21
new weight for 1 is: 4194321
new weight for 2 is: -4194193
new weight for 0 is: -21
new weight for 1 is: 4194321
new weight for 2 is: -4194193
new weight for 0 is: -21
new weight for 1 is: 4194321
new weight for 2 is: -4194193
new weight for 0 is: -21
new weight for 1 is: 4194321
new weight for 2 is: -4194193
new weight for 0 is: -21
new weight for 1 is: 4194321
new weight for 2 is: -4194193
new weight for 0 is: -21
new weight for 1 is: -10002266
new weight for 2 is: 10002370
new weight for 0 is: -21
new weight for 1 is: 4194275
new weight for 2 is: -4194147
new weight for 0 is: -21
new weight for 1 is: -145432178
new weight for 2 is: 145432282
new weight for 0 is: -21
new weight for 1 is: -145432218
new weight for 2 is: 145432322
new weight for 0 is: -21
new weight for 1 is: -145432218
new weight for 2 is: 145432322
new weight for 0 is: -21
new weight for 1 is: 4194316
new weight for 2 is: -4194188
new weight for 0 is: -21
new weight for 1 is: 4194356
new weight for 2 is: -4194228
new weight for 0 is: -21
new weight for 1 is: 4194356
new weight for 2 is: -4194228
new weight for 0 is: -21
new weight for 1 is: 4194356
new weight for 2 is: -4194228
new weight for 0 is: -21
new weight for 1 is: 4194356
new weight for 2 is: -4194228
new weight for 0 is: -21
new weight for 1 is: 4194324
new weight for 2 is: -4194196
new weight for 0 is: -21
new weight for 1 is: 4194324
new weight for 2 is: -4194196
new weight for 0 is: -21
new weight for 1 is: -160260028
new weight for 2 is: 160260156
new weight for 0 is: -21
new weight for 1 is: 4194284
new weight for 2 is: -4194156
new weight for 0 is: -21
new weight for 1 is: 4194324
new weight for 2 is: -4194196
new weight for 0 is: -21
new weight for 1 is: -136437087
new weight for 2 is: 136437212
new weight for 0 is: -21
new weight for 1 is: -136437127
new weight for 2 is: 136437252
new weight for 0 is: -21
new weight for 1 is: -136437127
new weight for 2 is: 136437252
new weight for 0 is: -21
new weight for 1 is: -136437127
new weight for 2 is: 136437252
new weight for 0 is: -21
new weight for 1 is: -136410451
new weight for 2 is: 136410558
new weight for 0 is: -21
new weight for 1 is: 4194284
new weight for 2 is: -4194156
new weight for 0 is: -21
new weight for 1 is: 4194324
new weight for 2 is: -4194196
new weight for 0 is: -21
new weight for 1 is: 4194324
new weight for 2 is: -4194196
new weight for 0 is: -21
new weight for 1 is: 4194324
new weight for 2 is: -4194196
new weight for 0 is: -21
new weight for 1 is: 4194324
new weight for 2 is: -4194196
new weight for 0 is: -21
new weight for 1 is: 4194324
new weight for 2 is: -4194196
new weight for 0 is: -21
new weight for 1 is: 4194324
new weight for 2 is: -4194196
new weight for 0 is: -21
new weight for 1 is: 4194324
new weight for 2 is: -4194196
new weight for 0 is: -21
new weight for 1 is: -148577513
new weight for 2 is: 148577641
new weight for 0 is: -21
new weight for 1 is: -148577553
new weight for 2 is: 148577681
new weight for 0 is: -21
new weight for 1 is: 4194281
new weight for 2 is: -4194153
new weight for 0 is: -21
new weight for 1 is: 4194321
new weight for 2 is: -4194193
new weight for 0 is: -21
new weight for 1 is: -150233495
new weight for 2 is: 150233595
new weight for 0 is: -21
new weight for 1 is: 4194300
new weight for 2 is: -4194172
new weight for 0 is: -21
new weight for 1 is: 4194340
new weight for 2 is: -4194212
new weight for 0 is: -21
new weight for 1 is: -163852470
new weight for 2 is: 163852598
new weight for 0 is: -21
new weight for 1 is: -163852510
new weight for 2 is: 163852638
new weight for 0 is: -21
new weight for 1 is: 4194316
new weight for 2 is: -4194188
new weight for 0 is: -21
new weight for 1 is: 4194356
new weight for 2 is: -4194228
new weight for 0 is: -21
new weight for 1 is: -139070761
new weight for 2 is: 139070860
new weight for 0 is: -21
new weight for 1 is: -139070801
new weight for 2 is: 139070900
new weight for 0 is: -21
new weight for 1 is: -139070801
new weight for 2 is: 139070900
new weight for 0 is: -21
new weight for 1 is: -139070801
new weight for 2 is: 139070900
new weight for 0 is: -21
new weight for 1 is: -139070801
new weight for 2 is: 139070900
new weight for 0 is: -21
new weight for 1 is: -139070801
new weight for 2 is: 139070900
new weight for 0 is: -21
new weight for 1 is: -139070801
new weight for 2 is: 139070900
new weight for 0 is: -21
new weight for 1 is: -139070801
new weight for 2 is: 139070900
new weight for 0 is: -21
new weight for 1 is: -139070801
new weight for 2 is: 139070900
new weight for 0 is: -21
new weight for 1 is: 4194284
new weight for 2 is: -4194156
new weight for 0 is: -21
new weight for 1 is: 4194324
new weight for 2 is: -4194196
new weight for 0 is: -21
new weight for 1 is: -139094972
new weight for 2 is: 139095092
new weight for 0 is: -21
new weight for 1 is: 4194332
new weight for 2 is: -4194204
new weight for 0 is: -21
new weight for 1 is: 4194372
new weight for 2 is: -4194244
new weight for 0 is: -21
new weight for 1 is: -139036872
new weight for 2 is: 139036940
new weight for 0 is: -21
new weight for 1 is: -139036912
new weight for 2 is: 139036980
new weight for 0 is: -21
new weight for 1 is: -139036912
new weight for 2 is: 139036980
new weight for 0 is: -21
new weight for 1 is: 4194281
new weight for 2 is: -4194153
new weight for 0 is: -21
new weight for 1 is: 4194321
new weight for 2 is: -4194193
new weight for 0 is: -21
new weight for 1 is: 4194321
new weight for 2 is: -4194193
new weight for 0 is: -21
new weight for 1 is: 4194321
new weight for 2 is: -4194193
new weight for 0 is: -21
new weight for 1 is: 4194321
new weight for 2 is: -4194193
new weight for 0 is: -21
new weight for 1 is: 4194321
new weight for 2 is: -4194193
new weight for 0 is: -21
new weight for 1 is: 4194321
new weight for 2 is: -4194193
new weight for 0 is: -21
new weight for 1 is: 4194321
new weight for 2 is: -4194193
new weight for 0 is: -21
new weight for 1 is: -137510441
new weight for 2 is: 137510569
new weight for 0 is: -21
new weight for 1 is: 3530053
new weight for 2 is: -3529933
new weight for 0 is: -21
new weight for 1 is: 3530093
new weight for 2 is: -3529973
new weight for 0 is: -21
new weight for 1 is: 3530093
new weight for 2 is: -3529973
new weight for 0 is: -21
new weight for 1 is: 3530093
new weight for 2 is: -3529973
new weight for 0 is: -21
new weight for 1 is: 3530135
new weight for 2 is: -3530050
new weight for 0 is: -21
new weight for 1 is: 3530135
new weight for 2 is: -3530050
new weight for 0 is: -21
new weight for 1 is: -138177161
new weight for 2 is: 138177285
new weight for 0 is: -21
new weight for 1 is: -138177201
new weight for 2 is: 138177325
new weight for 0 is: -21
new weight for 1 is: -163793815
new weight for 2 is: 163793903
new weight for 0 is: -21
new weight for 1 is: 4194332
new weight for 2 is: -4194204
new weight for 0 is: -21
new weight for 1 is: -151682237
new weight for 2 is: 151682309
new weight for 0 is: -21
new weight for 1 is: 3531957
new weight for 2 is: -3531853
new weight for 0 is: -21
new weight for 1 is: 3531997
new weight for 2 is: -3531893
new weight for 0 is: -21
new weight for 1 is: 3532043
new weight for 2 is: -3531970
new weight for 0 is: -21
new weight for 1 is: 3532043
new weight for 2 is: -3531970
new weight for 0 is: -21
new weight for 1 is: -142266348
new weight for 2 is: 142266476
new weight for 0 is: -21
new weight for 1 is: -142266388
new weight for 2 is: 142266516
new weight for 0 is: -21
new weight for 1 is: 4194284
new weight for 2 is: -4194156
new weight for 0 is: -21
new weight for 1 is: 4194324
new weight for 2 is: -4194196
new weight for 0 is: -21
new weight for 1 is: -150061522
new weight for 2 is: 150061650
new weight for 0 is: -21
new weight for 1 is: -150061562
new weight for 2 is: 150061690
new weight for 0 is: -21
new weight for 1 is: -150061562
new weight for 2 is: 150061690
new weight for 0 is: -21
new weight for 1 is: 4194281
new weight for 2 is: -4194153
new weight for 0 is: -21
new weight for 1 is: 4194321
new weight for 2 is: -4194193
new weight for 0 is: -21
new weight for 1 is: -142266351
new weight for 2 is: 142266479
new weight for 0 is: -21
new weight for 1 is: -142266391
new weight for 2 is: 142266519
new weight for 0 is: -21
new weight for 1 is: -163795335
new weight for 2 is: 163795439
new weight for 0 is: -21
new weight for 1 is: -163795399
new weight for 2 is: 163795503
new weight for 0 is: -21
new weight for 1 is: -163795399
new weight for 2 is: 163795503
new weight for 0 is: -21
new weight for 1 is: 4194284
new weight for 2 is: -4194156
new weight for 0 is: -21
new weight for 1 is: 4194324
new weight for 2 is: -4194196
new weight for 0 is: -21
new weight for 1 is: -142266348
new weight for 2 is: 142266476
new weight for 0 is: -21
new weight for 1 is: -163795575
new weight for 2 is: 163795695
new weight for 0 is: -21
new weight for 1 is: -163795639
new weight for 2 is: 163795759
new weight for 0 is: -21
new weight for 1 is: -163795831
new weight for 2 is: 163795951
new weight for 0 is: -21
new weight for 1 is: -163795831
new weight for 2 is: 163795951
new weight for 0 is: -21
new weight for 1 is: -163795831
new weight for 2 is: 163795951
new weight for 0 is: -21
new weight for 1 is: -163795831
new weight for 2 is: 163795951
new weight for 0 is: -21
new weight for 1 is: 2912411
new weight for 2 is: -2912315
new weight for 0 is: -21
new weight for 1 is: 2912451
new weight for 2 is: -2912355
new weight for 0 is: -21
new weight for 1 is: -142266351
new weight for 2 is: 142266479
new weight for 0 is: -21
new weight for 1 is: -142266391
new weight for 2 is: 142266519
new weight for 0 is: -21
new weight for 1 is: -163796343
new weight for 2 is: 163796463
new weight for 0 is: -21
new weight for 1 is: 4194284
new weight for 2 is: -4194156
new weight for 0 is: -21
new weight for 1 is: 4194324
new weight for 2 is: -4194196
new weight for 0 is: -21
new weight for 1 is: -140573158
new weight for 2 is: 140573238
new weight for 0 is: -21
new weight for 1 is: -140573198
new weight for 2 is: 140573278
new weight for 0 is: -21
new weight for 1 is: 3539909
new weight for 2 is: -3539789
new weight for 0 is: -21
new weight for 1 is: -150291147
new weight for 2 is: 150291259
new weight for 0 is: -21
new weight for 1 is: -163797447
new weight for 2 is: 163797551
new weight for 0 is: -21
new weight for 1 is: -163797447
new weight for 2 is: 163797551
new weight for 0 is: -21
new weight for 1 is: 4194283
new weight for 2 is: -4194155
new weight for 0 is: -21
new weight for 1 is: 4194323
new weight for 2 is: -4194195
new weight for 0 is: -21
new weight for 1 is: 4194323
new weight for 2 is: -4194195
new weight for 0 is: -21
new weight for 1 is: 4194323
new weight for 2 is: -4194195
new weight for 0 is: -21
new weight for 1 is: 3547469
new weight for 2 is: -3547381
new weight for 0 is: -21
new weight for 1 is: 3547469
new weight for 2 is: -3547381
new weight for 0 is: -21
new weight for 1 is: -160260076
new weight for 2 is: 160260204
new weight for 0 is: -21
new weight for 1 is: -160260116
new weight for 2 is: 160260244
new weight for 0 is: -21
new weight for 1 is: -163797879
new weight for 2 is: 163797999
new weight for 0 is: -21
new weight for 1 is: -163797879
new weight for 2 is: 163797999
new weight for 0 is: -21
new weight for 1 is: 3068520
new weight for 2 is: -3068447
new weight for 0 is: -21
new weight for 1 is: 3068560
new weight for 2 is: -3068487
new weight for 0 is: -21
new weight for 1 is: -150286258
new weight for 2 is: 150286331
new weight for 0 is: -21
new weight for 1 is: -150286298
new weight for 2 is: 150286371
new weight for 0 is: -21
new weight for 1 is: -163798135
new weight for 2 is: 163798255
new weight for 0 is: -21
new weight for 1 is: -163798135
new weight for 2 is: 163798255
new weight for 0 is: -21
new weight for 1 is: -163798423
new weight for 2 is: 163798511
new weight for 0 is: -21
new weight for 1 is: -163798423
new weight for 2 is: 163798511
new weight for 0 is: -21
new weight for 1 is: -163798423
new weight for 2 is: 163798511
new weight for 0 is: -21
new weight for 1 is: -163798423
new weight for 2 is: 163798511
new weight for 0 is: -21
new weight for 1 is: -163798423
new weight for 2 is: 163798511
new weight for 0 is: -21
new weight for 1 is: -163798423
new weight for 2 is: 163798511
new weight for 0 is: -21
new weight for 1 is: -163798423
new weight for 2 is: 163798511
new weight for 0 is: -21
new weight for 1 is: -163798615
new weight for 2 is: 163798703
new weight for 0 is: -21
new weight for 1 is: -163798615
new weight for 2 is: 163798703
new weight for 0 is: -21
new weight for 1 is: 4194332
new weight for 2 is: -4194204
new weight for 0 is: -21
new weight for 1 is: 4194372
new weight for 2 is: -4194244
new weight for 0 is: -21
new weight for 1 is: 4194372
new weight for 2 is: -4194244
new weight for 0 is: -21
new weight for 1 is: 4194372
new weight for 2 is: -4194244
new weight for 0 is: -21
new weight for 1 is: -160260078
new weight for 2 is: 160260206
new weight for 0 is: -21
new weight for 1 is: -160260118
new weight for 2 is: 160260246
new weight for 0 is: -21
new weight for 1 is: 4194283
new weight for 2 is: -4194155
new weight for 0 is: -21
new weight for 1 is: 4194323
new weight for 2 is: -4194195
new weight for 0 is: -21
new weight for 1 is: -10405578
new weight for 2 is: 10405706
new weight for 0 is: -21
new weight for 1 is: 2920731
new weight for 2 is: -2920635
new weight for 0 is: -21
new weight for 1 is: 2920771
new weight for 2 is: -2920675
new weight for 0 is: -21
new weight for 1 is: -150287467
new weight for 2 is: 150287547
new weight for 0 is: -21
new weight for 1 is: -150287507
new weight for 2 is: 150287587
new weight for 0 is: -21
new weight for 1 is: -150287507
new weight for 2 is: 150287587
new weight for 0 is: -21
new weight for 1 is: -163802071
new weight for 2 is: 163802159
new weight for 0 is: -21
new weight for 1 is: -163802071
new weight for 2 is: 163802159
new weight for 0 is: -21
new weight for 1 is: -163802247
new weight for 2 is: 163802351
new weight for 0 is: -21
new weight for 1 is: -163802247
new weight for 2 is: 163802351
new weight for 0 is: -21
new weight for 1 is: -163802247
new weight for 2 is: 163802351
new weight for 0 is: -21
new weight for 1 is: -163802247
new weight for 2 is: 163802351
new weight for 0 is: -21
new weight for 1 is: -163802439
new weight for 2 is: 163802543
new weight for 0 is: -21
new weight for 1 is: -163802439
new weight for 2 is: 163802543
new weight for 0 is: -21
new weight for 1 is: 4194284
new weight for 2 is: -4194156
new weight for 0 is: -21
new weight for 1 is: 4194324
new weight for 2 is: -4194196
new weight for 0 is: -21
new weight for 1 is: 3548874
new weight for 2 is: -3548802
new weight for 0 is: -21
new weight for 1 is: 3548874
new weight for 2 is: -3548802
new weight for 0 is: -21
new weight for 1 is: 3548874
new weight for 2 is: -3548802
new weight for 0 is: -21
new weight for 1 is: 3548874
new weight for 2 is: -3548802
new weight for 0 is: -21
new weight for 1 is: 4194324
new weight for 2 is: -4194196
new weight for 0 is: -21
new weight for 1 is: 4194324
new weight for 2 is: -4194196
new weight for 0 is: -21
new weight for 1 is: -142266348
new weight for 2 is: 142266476
new weight for 0 is: -21
new weight for 1 is: -142266388
new weight for 2 is: 142266516
new weight for 0 is: -21
new weight for 1 is: -163803399
new weight for 2 is: 163803503
new weight for 0 is: -21
new weight for 1 is: 4194283
new weight for 2 is: -4194155
new weight for 0 is: -21
new weight for 1 is: 4194323
new weight for 2 is: -4194195
new weight for 0 is: -21
new weight for 1 is: -150281196
new weight for 2 is: 150281324
new weight for 0 is: -21
new weight for 1 is: -150281236
new weight for 2 is: 150281364
new weight for 0 is: -21
new weight for 1 is: -150281236
new weight for 2 is: 150281364
new weight for 0 is: -21
new weight for 1 is: 2927675
new weight for 2 is: -2927547
new weight for 0 is: -21
new weight for 1 is: 2927715
new weight for 2 is: -2927587
new weight for 0 is: -21
new weight for 1 is: 2927715
new weight for 2 is: -2927587
new weight for 0 is: -21
new weight for 1 is: 2927715
new weight for 2 is: -2927587
new weight for 0 is: -21
new weight for 1 is: -9933412
new weight for 2 is: 9933504
new weight for 0 is: -21
new weight for 1 is: 3303939
new weight for 2 is: -3303839
new weight for 0 is: -21
new weight for 1 is: 3303979
new weight for 2 is: -3303879
new weight for 0 is: -21
new weight for 1 is: 3303979
new weight for 2 is: -3303879
new weight for 0 is: -21
new weight for 1 is: 3303979
new weight for 2 is: -3303879
new weight for 0 is: -21
new weight for 1 is: 3303979
new weight for 2 is: -3303879
new weight for 0 is: -21
new weight for 1 is: 3303979
new weight for 2 is: -3303879
new weight for 0 is: -21
new weight for 1 is: 3303979
new weight for 2 is: -3303879
new weight for 0 is: -21
new weight for 1 is: 3303979
new weight for 2 is: -3303879
new weight for 0 is: -21
new weight for 1 is: -136408587
new weight for 2 is: 136408662
new weight for 0 is: -21
new weight for 1 is: 4194300
new weight for 2 is: -4194172
new weight for 0 is: -21
new weight for 1 is: 4194340
new weight for 2 is: -4194212
new weight for 0 is: -21
new weight for 1 is: 4194340
new weight for 2 is: -4194212
new weight for 0 is: -21
new weight for 1 is: -150139115
new weight for 2 is: 150139195
new weight for 0 is: -21
new weight for 1 is: 4194332
new weight for 2 is: -4194204
new weight for 0 is: -21
new weight for 1 is: 4194372
new weight for 2 is: -4194244
new weight for 0 is: -21
new weight for 1 is: -10342598
new weight for 2 is: 10342726
new weight for 0 is: -21
new weight for 1 is: 4194283
new weight for 2 is: -4194155
new weight for 0 is: -21
new weight for 1 is: 4194323
new weight for 2 is: -4194195
new weight for 0 is: -21
new weight for 1 is: -10344887
new weight for 2 is: 10345015
new weight for 0 is: -21
new weight for 1 is: -163807927
new weight for 2 is: 163808047
new weight for 0 is: -21
new weight for 1 is: -163807927
new weight for 2 is: 163808047
new weight for 0 is: -21
new weight for 1 is: 4194283
new weight for 2 is: -4194155
new weight for 0 is: -21
new weight for 1 is: 4194323
new weight for 2 is: -4194195
new weight for 0 is: -21
new weight for 1 is: -150278239
new weight for 2 is: 150278367
new weight for 0 is: -21
new weight for 1 is: -163810039
new weight for 2 is: 163810159
new weight for 0 is: -21
new weight for 1 is: -163810039
new weight for 2 is: 163810159
new weight for 0 is: -21
new weight for 1 is: -163810039
new weight for 2 is: 163810159
new weight for 0 is: -21
new weight for 1 is: -163738456
new weight for 2 is: 163738584
new weight for 0 is: -21
new weight for 1 is: -163738456
new weight for 2 is: 163738584
new weight for 0 is: -21
new weight for 1 is: 3286710
new weight for 2 is: -3286614
new weight for 0 is: -21
new weight for 1 is: 3286750
new weight for 2 is: -3286654
new weight for 0 is: -21
new weight for 1 is: 3286750
new weight for 2 is: -3286654
new weight for 0 is: -21
new weight for 1 is: 3286750
new weight for 2 is: -3286654
new weight for 0 is: -21
new weight for 1 is: 3286750
new weight for 2 is: -3286654
new weight for 0 is: -21
new weight for 1 is: 3286750
new weight for 2 is: -3286654
new weight for 0 is: -21
new weight for 1 is: 3286750
new weight for 2 is: -3286654
new weight for 0 is: -21
new weight for 1 is: -150132860
new weight for 2 is: 150132987
new weight for 0 is: -21
new weight for 1 is: -150132900
new weight for 2 is: 150133027
new weight for 0 is: -21
new weight for 1 is: -163810775
new weight for 2 is: 163810863
new weight for 0 is: -21
new weight for 1 is: -163810775
new weight for 2 is: 163810863
new weight for 0 is: -21
new weight for 1 is: -163739246
new weight for 2 is: 163739374
new weight for 0 is: -21
new weight for 1 is: -163739246
new weight for 2 is: 163739374
new weight for 0 is: -21
new weight for 1 is: -163739246
new weight for 2 is: 163739374
new weight for 0 is: -21
new weight for 1 is: -163739246
new weight for 2 is: 163739374
new weight for 0 is: -21
new weight for 1 is: -163810935
new weight for 2 is: 163811055
new weight for 0 is: -21
new weight for 1 is: -163810935
new weight for 2 is: 163811055
new weight for 0 is: -21
new weight for 1 is: -163811127
new weight for 2 is: 163811247
new weight for 0 is: -21
new weight for 1 is: -163811127
new weight for 2 is: 163811247
new weight for 0 is: -21
new weight for 1 is: -163811127
new weight for 2 is: 163811247
new weight for 0 is: -21
new weight for 1 is: -163811127
new weight for 2 is: 163811247
new weight for 0 is: -21
new weight for 1 is: 3556968
new weight for 2 is: -3556890
new weight for 0 is: -21
new weight for 1 is: 3557008
new weight for 2 is: -3556930
new weight for 0 is: -21
new weight for 1 is: -163811087
new weight for 2 is: 163811207
new weight for 0 is: -21
new weight for 1 is: -163811127
new weight for 2 is: 163811247
new weight for 0 is: -21
new weight for 1 is: 4194284
new weight for 2 is: -4194156
new weight for 0 is: -21
new weight for 1 is: 4194324
new weight for 2 is: -4194196
new weight for 0 is: -21
new weight for 1 is: -150275551
new weight for 2 is: 150275679
new weight for 0 is: -21
new weight for 1 is: -150275591
new weight for 2 is: 150275719
new weight for 0 is: -21
new weight for 1 is: -163811719
new weight for 2 is: 163811823
new weight for 0 is: -21
new weight for 1 is: -163811719
new weight for 2 is: 163811823
new weight for 0 is: -21
new weight for 1 is: -163811719
new weight for 2 is: 163811823
new weight for 0 is: -21
new weight for 1 is: -163811719
new weight for 2 is: 163811823
new weight for 0 is: -21
new weight for 1 is: -163740206
new weight for 2 is: 163740334
new weight for 0 is: -21
new weight for 1 is: -163740206
new weight for 2 is: 163740334
new weight for 0 is: -21
new weight for 1 is: -163740206
new weight for 2 is: 163740334
new weight for 0 is: -21
new weight for 1 is: -163740206
new weight for 2 is: 163740334
new weight for 0 is: -21
new weight for 1 is: -163740206
new weight for 2 is: 163740334
new weight for 0 is: -21
new weight for 1 is: -163811895
new weight for 2 is: 163812015
new weight for 0 is: -21
new weight for 1 is: -163811895
new weight for 2 is: 163812015
new weight for 0 is: -21
new weight for 1 is: 4194283
new weight for 2 is: -4194155
new weight for 0 is: -21
new weight for 1 is: 4194323
new weight for 2 is: -4194195
new weight for 0 is: -21
new weight for 1 is: -163812063
new weight for 2 is: 163812167
new weight for 0 is: -21
new weight for 1 is: -163812103
new weight for 2 is: 163812207
new weight for 0 is: -21
new weight for 1 is: 3118503
new weight for 2 is: -3118376
new weight for 0 is: -21
new weight for 1 is: 3118543
new weight for 2 is: -3118416
new weight for 0 is: -21
new weight for 1 is: -10559748
new weight for 2 is: 10559876
new weight for 0 is: -21
new weight for 1 is: -163813159
new weight for 2 is: 163813231
new weight for 0 is: -21
new weight for 1 is: -163813159
new weight for 2 is: 163813231
new weight for 0 is: -21
new weight for 1 is: -163813303
new weight for 2 is: 163813423
new weight for 0 is: -21
new weight for 1 is: -163813303
new weight for 2 is: 163813423
new weight for 0 is: -21
new weight for 1 is: -163813303
new weight for 2 is: 163813423
new weight for 0 is: -21
new weight for 1 is: -163813303
new weight for 2 is: 163813423
new weight for 0 is: -21
new weight for 1 is: 3040002
new weight for 2 is: -3039912
new weight for 0 is: -21
new weight for 1 is: 3040042
new weight for 2 is: -3039952
new weight for 0 is: -21
new weight for 1 is: -10420867
new weight for 2 is: 10420995
new weight for 0 is: -21
new weight for 1 is: -10420907
new weight for 2 is: 10421035
new weight for 0 is: -21
new weight for 1 is: 3265018
new weight for 2 is: -3264927
new weight for 0 is: -21
new weight for 1 is: 3265058
new weight for 2 is: -3264967
new weight for 0 is: -21
new weight for 1 is: 3265058
new weight for 2 is: -3264967
new weight for 0 is: -21
new weight for 1 is: 3265058
new weight for 2 is: -3264967
new weight for 0 is: -21
new weight for 1 is: -150270067
new weight for 2 is: 150270139
new weight for 0 is: -21
new weight for 1 is: -150270115
new weight for 2 is: 150270243
new weight for 0 is: -21
new weight for 1 is: -150270115
new weight for 2 is: 150270243
new weight for 0 is: -21
new weight for 1 is: -163815255
new weight for 2 is: 163815343
new weight for 0 is: -21
new weight for 1 is: -163815255
new weight for 2 is: 163815343
new weight for 0 is: -21
new weight for 1 is: -163815255
new weight for 2 is: 163815343
new weight for 0 is: -21
new weight for 1 is: -163815255
new weight for 2 is: 163815343
new weight for 0 is: -21
new weight for 1 is: -163815255
new weight for 2 is: 163815343
new weight for 0 is: -21
new weight for 1 is: 4194300
new weight for 2 is: -4194172
new weight for 0 is: -21
new weight for 1 is: 4194340
new weight for 2 is: -4194212
new weight for 0 is: -21
new weight for 1 is: -154243483
new weight for 2 is: 154243603
new weight for 0 is: -21
new weight for 1 is: -154243523
new weight for 2 is: 154243643
new weight for 0 is: -21
new weight for 1 is: -163815799
new weight for 2 is: 163815919
new weight for 0 is: -21
new weight for 1 is: -163815799
new weight for 2 is: 163815919
new weight for 0 is: -21
new weight for 1 is: -163815991
new weight for 2 is: 163816111
new weight for 0 is: -21
new weight for 1 is: -163815991
new weight for 2 is: 163816111
new weight for 0 is: -21
new weight for 1 is: 4194281
new weight for 2 is: -4194153
new weight for 0 is: -21
new weight for 1 is: 4194321
new weight for 2 is: -4194193
new weight for 0 is: -21
new weight for 1 is: -150270764
new weight for 2 is: 150270892
new weight for 0 is: -21
new weight for 1 is: -150270804
new weight for 2 is: 150270932
new weight for 0 is: -21
new weight for 1 is: -150270996
new weight for 2 is: 150271124
new weight for 0 is: -21
new weight for 1 is: -150270996
new weight for 2 is: 150271124
new weight for 0 is: -21
new weight for 1 is: -163744886
new weight for 2 is: 163745014
new weight for 0 is: -21
new weight for 1 is: -163744886
new weight for 2 is: 163745014
new weight for 0 is: -21
new weight for 1 is: -163744886
new weight for 2 is: 163745014
new weight for 0 is: -21
new weight for 1 is: -163744886
new weight for 2 is: 163745014
new weight for 0 is: -21
new weight for 1 is: -163744886
new weight for 2 is: 163745014
new weight for 0 is: -21
new weight for 1 is: -163816663
new weight for 2 is: 163816751
new weight for 0 is: -21
new weight for 1 is: -163816663
new weight for 2 is: 163816751
new weight for 0 is: -21
new weight for 1 is: -163816727
new weight for 2 is: 163816815
new weight for 0 is: -21
new weight for 1 is: -163816727
new weight for 2 is: 163816815
new weight for 0 is: -21
new weight for 1 is: 4194284
new weight for 2 is: -4194156
new weight for 0 is: -21
new weight for 1 is: 4194324
new weight for 2 is: -4194196
new weight for 0 is: -21
new weight for 1 is: -154244879
new weight for 2 is: 154245007
new weight for 0 is: -21
new weight for 1 is: -154244919
new weight for 2 is: 154245047
new weight for 0 is: -21
new weight for 1 is: -163817223
new weight for 2 is: 163817327
new weight for 0 is: -21
new weight for 1 is: -163817287
new weight for 2 is: 163817391
new weight for 0 is: -21
new weight for 1 is: -163817287
new weight for 2 is: 163817391
new weight for 0 is: -21
new weight for 1 is: -163817463
new weight for 2 is: 163817583
new weight for 0 is: -21
new weight for 1 is: -163817463
new weight for 2 is: 163817583
new weight for 0 is: -21
new weight for 1 is: 3262592
new weight for 2 is: -3262464
new weight for 0 is: -21
new weight for 1 is: 3262632
new weight for 2 is: -3262504
new weight for 0 is: -21
new weight for 1 is: 3262632
new weight for 2 is: -3262504
new weight for 0 is: -21
new weight for 1 is: 3262632
new weight for 2 is: -3262504
new weight for 0 is: -21
new weight for 1 is: -150269829
new weight for 2 is: 150269957
new weight for 0 is: -21
new weight for 1 is: 4194283
new weight for 2 is: -4194155
new weight for 0 is: -21
new weight for 1 is: 4194323
new weight for 2 is: -4194195
new weight for 0 is: -21
new weight for 1 is: 4194323
new weight for 2 is: -4194195
new weight for 0 is: -21
new weight for 1 is: 4194323
new weight for 2 is: -4194195
new weight for 0 is: -21
new weight for 1 is: -154247067
new weight for 2 is: 154247187
new weight for 0 is: -21
new weight for 1 is: -154247107
new weight for 2 is: 154247227
new weight for 0 is: -21
new weight for 1 is: -163819415
new weight for 2 is: 163819503
new weight for 0 is: -21
new weight for 1 is: -163819479
new weight for 2 is: 163819567
new weight for 0 is: -21
new weight for 1 is: -163819479
new weight for 2 is: 163819567
new weight for 0 is: -21
new weight for 1 is: 4194280
new weight for 2 is: -4194152
new weight for 0 is: -21
new weight for 1 is: 4194320
new weight for 2 is: -4194192
new weight for 0 is: -21
new weight for 1 is: -154248283
new weight for 2 is: 154248403
new weight for 0 is: -21
new weight for 1 is: -154248323
new weight for 2 is: 154248443
new weight for 0 is: -21
new weight for 1 is: -163820615
new weight for 2 is: 163820719
new weight for 0 is: -21
new weight for 1 is: -163820615
new weight for 2 is: 163820719
new weight for 0 is: -21
new weight for 1 is: -163820823
new weight for 2 is: 163820911
new weight for 0 is: -21
new weight for 1 is: -163820823
new weight for 2 is: 163820911
new weight for 0 is: -21
new weight for 1 is: -163820823
new weight for 2 is: 163820911
new weight for 0 is: -21
new weight for 1 is: -163820823
new weight for 2 is: 163820911
new weight for 0 is: -21
new weight for 1 is: -163749592
new weight for 2 is: 163749720
new weight for 0 is: -21
new weight for 1 is: -163749592
new weight for 2 is: 163749720
new weight for 0 is: -21
new weight for 1 is: -163821351
new weight for 2 is: 163821423
new weight for 0 is: -21
new weight for 1 is: -163821351
new weight for 2 is: 163821423
new weight for 0 is: -21
new weight for 1 is: -163750368
new weight for 2 is: 163750496
new weight for 0 is: -21
new weight for 1 is: -163750368
new weight for 2 is: 163750496
new weight for 0 is: -21
new weight for 1 is: -163750368
new weight for 2 is: 163750496
new weight for 0 is: -21
new weight for 1 is: -163750368
new weight for 2 is: 163750496
new weight for 0 is: -21
new weight for 1 is: -163750368
new weight for 2 is: 163750496
new weight for 0 is: -21
new weight for 1 is: -163750368
new weight for 2 is: 163750496
new weight for 0 is: -21
new weight for 1 is: -163750368
new weight for 2 is: 163750496
new weight for 0 is: -21
new weight for 1 is: -163822087
new weight for 2 is: 163822191
new weight for 0 is: -21
new weight for 1 is: -163822087
new weight for 2 is: 163822191
new weight for 0 is: -21
new weight for 1 is: -163822263
new weight for 2 is: 163822383
new weight for 0 is: -21
new weight for 1 is: -163822263
new weight for 2 is: 163822383
new weight for 0 is: -21
new weight for 1 is: 3263625
new weight for 2 is: -3263497
new weight for 0 is: -21
new weight for 1 is: 3263665
new weight for 2 is: -3263537
new weight for 0 is: -21
new weight for 1 is: -10572020
new weight for 2 is: 10572148
new weight for 0 is: -21
new weight for 1 is: -10572060
new weight for 2 is: 10572188
new weight for 0 is: -21
new weight for 1 is: -10572060
new weight for 2 is: 10572188
new weight for 0 is: -21
new weight for 1 is: -10572060
new weight for 2 is: 10572188
new weight for 0 is: -21
new weight for 1 is: -10572060
new weight for 2 is: 10572188
new weight for 0 is: -21
new weight for 1 is: -10572060
new weight for 2 is: 10572188
new weight for 0 is: -21
new weight for 1 is: -163822711
new weight for 2 is: 163822831
new weight for 0 is: -21
new weight for 1 is: -163822711
new weight for 2 is: 163822831
new weight for 0 is: -21
new weight for 1 is: 4194284
new weight for 2 is: -4194156
new weight for 0 is: -21
new weight for 1 is: 4194324
new weight for 2 is: -4194196
new weight for 0 is: -21
new weight for 1 is: -150272402
new weight for 2 is: 150272530
new weight for 0 is: -21
new weight for 1 is: -163823239
new weight for 2 is: 163823343
new weight for 0 is: -21
new weight for 1 is: -163823239
new weight for 2 is: 163823343
new weight for 0 is: -21
new weight for 1 is: -163823239
new weight for 2 is: 163823343
new weight for 0 is: -21
new weight for 1 is: -163823239
new weight for 2 is: 163823343
new weight for 0 is: -21
new weight for 1 is: -163751606
new weight for 2 is: 163751734
new weight for 0 is: -21
new weight for 1 is: -163751606
new weight for 2 is: 163751734
new weight for 0 is: -21
new weight for 1 is: -163751606
new weight for 2 is: 163751734
new weight for 0 is: -21
new weight for 1 is: -163751606
new weight for 2 is: 163751734
new weight for 0 is: -21
new weight for 1 is: -163751606
new weight for 2 is: 163751734
new weight for 0 is: -21
new weight for 1 is: -163823431
new weight for 2 is: 163823535
new weight for 0 is: -21
new weight for 1 is: -163823431
new weight for 2 is: 163823535
new weight for 0 is: -21
new weight for 1 is: -163823607
new weight for 2 is: 163823727
new weight for 0 is: -21
new weight for 1 is: -163823607
new weight for 2 is: 163823727
new weight for 0 is: -21
new weight for 1 is: -163824055
new weight for 2 is: 163824175
new weight for 0 is: -21
new weight for 1 is: 4194300
new weight for 2 is: -4194172
new weight for 0 is: -21
new weight for 1 is: 4194340
new weight for 2 is: -4194212
new weight for 0 is: -21
new weight for 1 is: -150234171
new weight for 2 is: 150234299
new weight for 0 is: -21
new weight for 1 is: 2940987
new weight for 2 is: -2940859
new weight for 0 is: -21
new weight for 1 is: 2941027
new weight for 2 is: -2940899
new weight for 0 is: -21
new weight for 1 is: 2941027
new weight for 2 is: -2940899
new weight for 0 is: -21
new weight for 1 is: 2941027
new weight for 2 is: -2940899
new weight for 0 is: -21
new weight for 1 is: -150231407
new weight for 2 is: 150231483
new weight for 0 is: -21
new weight for 1 is: -150231447
new weight for 2 is: 150231523
new weight for 0 is: -21
new weight for 1 is: -150231459
new weight for 2 is: 150231587
new weight for 0 is: -21
new weight for 1 is: -150231459
new weight for 2 is: 150231587
new weight for 0 is: -21
new weight for 1 is: 2941307
new weight for 2 is: -2941179
new weight for 0 is: -21
new weight for 1 is: 2941347
new weight for 2 is: -2941219
new weight for 0 is: -21
new weight for 1 is: -150268747
new weight for 2 is: 150268859
new weight for 0 is: -21
new weight for 1 is: -150268787
new weight for 2 is: 150268899
new weight for 0 is: -21
new weight for 1 is: -150268787
new weight for 2 is: 150268899
new weight for 0 is: -21
new weight for 1 is: -163824823
new weight for 2 is: 163824943
new weight for 0 is: -21
new weight for 1 is: -163824823
new weight for 2 is: 163824943
new weight for 0 is: -21
new weight for 1 is: 3122243
new weight for 2 is: -3122143
new weight for 0 is: -21
new weight for 1 is: 3122283
new weight for 2 is: -3122183
new weight for 0 is: -21
new weight for 1 is: 3122283
new weight for 2 is: -3122183
new weight for 0 is: -21
new weight for 1 is: 3122283
new weight for 2 is: -3122183
new weight for 0 is: -21
new weight for 1 is: 3122283
new weight for 2 is: -3122183
new weight for 0 is: -21
new weight for 1 is: 3122283
new weight for 2 is: -3122183
new weight for 0 is: -21
new weight for 1 is: -150279276
new weight for 2 is: 150279404
new weight for 0 is: -21
new weight for 1 is: -150279316
new weight for 2 is: 150279444
new weight for 0 is: -21
new weight for 1 is: 2942267
new weight for 2 is: -2942139
new weight for 0 is: -21
new weight for 1 is: 2942307
new weight for 2 is: -2942179
new weight for 0 is: -21
new weight for 1 is: -10572618
new weight for 2 is: 10572740
new weight for 0 is: -21
new weight for 1 is: -163825991
new weight for 2 is: 163826095
new weight for 0 is: -21
new weight for 1 is: -163825991
new weight for 2 is: 163826095
new weight for 0 is: -21
new weight for 1 is: 4194316
new weight for 2 is: -4194188
new weight for 0 is: -21
new weight for 1 is: 4194356
new weight for 2 is: -4194228
new weight for 0 is: -21
new weight for 1 is: -10574866
new weight for 2 is: 10574978
new weight for 0 is: -21
new weight for 1 is: -163826887
new weight for 2 is: 163826991
new weight for 0 is: -21
new weight for 1 is: -163826887
new weight for 2 is: 163826991
new weight for 0 is: -21
new weight for 1 is: 4194284
new weight for 2 is: -4194156
new weight for 0 is: -21
new weight for 1 is: 4194324
new weight for 2 is: -4194196
new weight for 0 is: -21
new weight for 1 is: -10574021
new weight for 2 is: 10574148
new weight for 0 is: -21
new weight for 1 is: -163827527
new weight for 2 is: 163827631
new weight for 0 is: -21
new weight for 1 is: 2943547
new weight for 2 is: -2943419
new weight for 0 is: -21
new weight for 1 is: 2943587
new weight for 2 is: -2943459
new weight for 0 is: -21
new weight for 1 is: 2943587
new weight for 2 is: -2943459
new weight for 0 is: -21
new weight for 1 is: -10433802
new weight for 2 is: 10433930
new weight for 0 is: -21
new weight for 1 is: -10433842
new weight for 2 is: 10433970
new weight for 0 is: -21
new weight for 1 is: 2943867
new weight for 2 is: -2943739
new weight for 0 is: -21
new weight for 1 is: 2943907
new weight for 2 is: -2943779
new weight for 0 is: -21
new weight for 1 is: -142266348
new weight for 2 is: 142266476
new weight for 0 is: -21
new weight for 1 is: 2944187
new weight for 2 is: -2944059
new weight for 0 is: -21
new weight for 1 is: 2944227
new weight for 2 is: -2944099
new weight for 0 is: -21
new weight for 1 is: -10575047
new weight for 2 is: 10575172
new weight for 0 is: -21
new weight for 1 is: -163828423
new weight for 2 is: 163828527
new weight for 0 is: -21
new weight for 1 is: -163828423
new weight for 2 is: 163828527
new weight for 0 is: -21
new weight for 1 is: -163828599
new weight for 2 is: 163828719
new weight for 0 is: -21
new weight for 1 is: -163828599
new weight for 2 is: 163828719
new weight for 0 is: -21
new weight for 1 is: -163828599
new weight for 2 is: 163828719
new weight for 0 is: -21
new weight for 1 is: -163828599
new weight for 2 is: 163828719
new weight for 0 is: -21
new weight for 1 is: 2944507
new weight for 2 is: -2944379
new weight for 0 is: -21
new weight for 1 is: 2944547
new weight for 2 is: -2944419
new weight for 0 is: -21
new weight for 1 is: -10577524
new weight for 2 is: 10577652
new weight for 0 is: -21
new weight for 1 is: -10577564
new weight for 2 is: 10577692
new weight for 0 is: -21
new weight for 1 is: -163829079
new weight for 2 is: 163829167
new weight for 0 is: -21
new weight for 1 is: -163829079
new weight for 2 is: 163829167
new weight for 0 is: -21
new weight for 1 is: -163829255
new weight for 2 is: 163829359
new weight for 0 is: -21
new weight for 1 is: -163829255
new weight for 2 is: 163829359
new weight for 0 is: -21
new weight for 1 is: 4194316
new weight for 2 is: -4194188
new weight for 0 is: -21
new weight for 1 is: 4194356
new weight for 2 is: -4194228
new weight for 0 is: -21
new weight for 1 is: -10576200
new weight for 2 is: 10576324
new weight for 0 is: -21
new weight for 1 is: -163829575
new weight for 2 is: 163829679
new weight for 0 is: -21
new weight for 1 is: -163829575
new weight for 2 is: 163829679
new weight for 0 is: -21
new weight for 1 is: -163829751
new weight for 2 is: 163829871
new weight for 0 is: -21
new weight for 1 is: -163829751
new weight for 2 is: 163829871
new weight for 0 is: -21
new weight for 1 is: -163829751
new weight for 2 is: 163829871
new weight for 0 is: -21
new weight for 1 is: -163829751
new weight for 2 is: 163829871
new weight for 0 is: -21
new weight for 1 is: 2945467
new weight for 2 is: -2945339
new weight for 0 is: -21
new weight for 1 is: 2945507
new weight for 2 is: -2945379
new weight for 0 is: -21
new weight for 1 is: -10576967
new weight for 2 is: 10577092
new weight for 0 is: -21
new weight for 1 is: -163830343
new weight for 2 is: 163830447
new weight for 0 is: -21
new weight for 1 is: -163830343
new weight for 2 is: 163830447
new weight for 0 is: -21
new weight for 1 is: 4194300
new weight for 2 is: -4194172
new weight for 0 is: -21
new weight for 1 is: 4194340
new weight for 2 is: -4194212
new weight for 0 is: -21
new weight for 1 is: -10577348
new weight for 2 is: 10577476
new weight for 0 is: -21
new weight for 1 is: -163830727
new weight for 2 is: 163830831
new weight for 0 is: -21
new weight for 1 is: -163830727
new weight for 2 is: 163830831
new weight for 0 is: -21
new weight for 1 is: -163830903
new weight for 2 is: 163831023
new weight for 0 is: -21
new weight for 1 is: -163830903
new weight for 2 is: 163831023
new weight for 0 is: -21
new weight for 1 is: -163830903
new weight for 2 is: 163831023
new weight for 0 is: -21
new weight for 1 is: -163830903
new weight for 2 is: 163831023
new weight for 0 is: -21
new weight for 1 is: 2946427
new weight for 2 is: -2946299
new weight for 0 is: -21
new weight for 1 is: 2946467
new weight for 2 is: -2946339
new weight for 0 is: -21
new weight for 1 is: -10437642
new weight for 2 is: 10437770
new weight for 0 is: -21
new weight for 1 is: 2947067
new weight for 2 is: -2946939
new weight for 0 is: -21
new weight for 1 is: 2947107
new weight for 2 is: -2946979
new weight for 0 is: -21
new weight for 1 is: -150233952
new weight for 2 is: 150234043
new weight for 0 is: -21
new weight for 1 is: -150233992
new weight for 2 is: 150234083
new weight for 0 is: -21
new weight for 1 is: -163832935
new weight for 2 is: 163833007
new weight for 0 is: -21
new weight for 1 is: -163832935
new weight for 2 is: 163833007
new weight for 0 is: -21
new weight for 1 is: -163833463
new weight for 2 is: 163833583
new weight for 0 is: -21
new weight for 1 is: -163833463
new weight for 2 is: 163833583
new weight for 0 is: -21
new weight for 1 is: -163760664
new weight for 2 is: 163760792
new weight for 0 is: -21
new weight for 1 is: -163760664
new weight for 2 is: 163760792
new weight for 0 is: -21
new weight for 1 is: 4194284
new weight for 2 is: -4194156
new weight for 0 is: -21
new weight for 1 is: 4194324
new weight for 2 is: -4194196
new weight for 0 is: -21
new weight for 1 is: -10580807
new weight for 2 is: 10580932
new weight for 0 is: -21
new weight for 1 is: -163834215
new weight for 2 is: 163834287
new weight for 0 is: -21
new weight for 1 is: -163834215
new weight for 2 is: 163834287
new weight for 0 is: -21
new weight for 1 is: -163834359
new weight for 2 is: 163834479
new weight for 0 is: -21
new weight for 1 is: -163834359
new weight for 2 is: 163834479
new weight for 0 is: -21
new weight for 1 is: -163834359
new weight for 2 is: 163834479
new weight for 0 is: -21
new weight for 1 is: -163834359
new weight for 2 is: 163834479
new weight for 0 is: -21
new weight for 1 is: 2948987
new weight for 2 is: -2948859
new weight for 0 is: -21
new weight for 1 is: 2949027
new weight for 2 is: -2948899
new weight for 0 is: -21
new weight for 1 is: -150233820
new weight for 2 is: 150233915
new weight for 0 is: -21
new weight for 1 is: -150233860
new weight for 2 is: 150233955
new weight for 0 is: -21
new weight for 1 is: 2949307
new weight for 2 is: -2949179
new weight for 0 is: -21
new weight for 1 is: 2949347
new weight for 2 is: -2949219
new weight for 0 is: -21
new weight for 1 is: -142266316
new weight for 2 is: 142266444
new weight for 0 is: -21
new weight for 1 is: -142266356
new weight for 2 is: 142266484
new weight for 0 is: -21
new weight for 1 is: -163835831
new weight for 2 is: 163835951
new weight for 0 is: -21
new weight for 1 is: 4194316
new weight for 2 is: -4194188
new weight for 0 is: -21
new weight for 1 is: 4194356
new weight for 2 is: -4194228
new weight for 0 is: -21
new weight for 1 is: 4194356
new weight for 2 is: -4194228
new weight for 0 is: -21
new weight for 1 is: 4194356
new weight for 2 is: -4194228
new weight for 0 is: -21
new weight for 1 is: -10583239
new weight for 2 is: 10583364
new weight for 0 is: -21
new weight for 1 is: -163836615
new weight for 2 is: 163836719
new weight for 0 is: -21
new weight for 1 is: -163836615
new weight for 2 is: 163836719
new weight for 0 is: -21
new weight for 1 is: -163836791
new weight for 2 is: 163836911
new weight for 0 is: -21
new weight for 1 is: -163836791
new weight for 2 is: 163836911
new weight for 0 is: -21
new weight for 1 is: -163836791
new weight for 2 is: 163836911
new weight for 0 is: -21
new weight for 1 is: -163836791
new weight for 2 is: 163836911
new weight for 0 is: -21
new weight for 1 is: 2950907
new weight for 2 is: -2950779
new weight for 0 is: -21
new weight for 1 is: 2950947
new weight for 2 is: -2950819
new weight for 0 is: -21
new weight for 1 is: -10583751
new weight for 2 is: 10583876
new weight for 0 is: -21
new weight for 1 is: 2951227
new weight for 2 is: -2951099
new weight for 0 is: -21
new weight for 1 is: 2951267
new weight for 2 is: -2951139
new weight for 0 is: -21
new weight for 1 is: -10443530
new weight for 2 is: 10443658
new weight for 0 is: -21
new weight for 1 is: 2951547
new weight for 2 is: -2951419
new weight for 0 is: -21
new weight for 1 is: 2951587
new weight for 2 is: -2951459
new weight for 0 is: -21
new weight for 1 is: -10443914
new weight for 2 is: 10444042
new weight for 0 is: -21
new weight for 1 is: -163838071
new weight for 2 is: 163838191
new weight for 0 is: -21
new weight for 1 is: -163838071
new weight for 2 is: 163838191
new weight for 0 is: -21
new weight for 1 is: -163838071
new weight for 2 is: 163838191
new weight for 0 is: -21
new weight for 1 is: 2952187
new weight for 2 is: -2952059
new weight for 0 is: -21
new weight for 1 is: 2952227
new weight for 2 is: -2952099
new weight for 0 is: -21
new weight for 1 is: -10444682
new weight for 2 is: 10444810
new weight for 0 is: -21
new weight for 1 is: -163838839
new weight for 2 is: 163838959
new weight for 0 is: -21
new weight for 1 is: -163838839
new weight for 2 is: 163838959
new weight for 0 is: -21
new weight for 1 is: -163838839
new weight for 2 is: 163838959
new weight for 0 is: -21
new weight for 1 is: -163838839
new weight for 2 is: 163838959
new weight for 0 is: -21
new weight for 1 is: -163839095
new weight for 2 is: 163839215
new weight for 0 is: -21
new weight for 1 is: -163839095
new weight for 2 is: 163839215
new weight for 0 is: -21
new weight for 1 is: 2952827
new weight for 2 is: -2952699
new weight for 0 is: -21
new weight for 1 is: 2952867
new weight for 2 is: -2952739
new weight for 0 is: -21
new weight for 1 is: -10445450
new weight for 2 is: 10445578
new weight for 0 is: -21
new weight for 1 is: -10445490
new weight for 2 is: 10445618
new weight for 0 is: -21
new weight for 1 is: 2953147
new weight for 2 is: -2953019
new weight for 0 is: -21
new weight for 1 is: 2953187
new weight for 2 is: -2953059
new weight for 0 is: -21
new weight for 1 is: -10586452
new weight for 2 is: 10586564
new weight for 0 is: -21
new weight for 1 is: -163839943
new weight for 2 is: 163840047
new weight for 0 is: -21
new weight for 1 is: -163839943
new weight for 2 is: 163840047
new weight for 0 is: -21
new weight for 1 is: 2953467
new weight for 2 is: -2953339
new weight for 0 is: -21
new weight for 1 is: 2953507
new weight for 2 is: -2953379
new weight for 0 is: -21
new weight for 1 is: -10446218
new weight for 2 is: 10446346
new weight for 0 is: -21
new weight for 1 is: 2953787
new weight for 2 is: -2953659
new weight for 0 is: -21
new weight for 1 is: 2953827
new weight for 2 is: -2953699
new weight for 0 is: -21
new weight for 1 is: -10446602
new weight for 2 is: 10446730
new weight for 0 is: -21
new weight for 1 is: 2954107
new weight for 2 is: -2953979
new weight for 0 is: -21
new weight for 1 is: 2954147
new weight for 2 is: -2954019
new weight for 0 is: -21
new weight for 1 is: -10587912
new weight for 2 is: 10588036
new weight for 0 is: -21
new weight for 1 is: -163841287
new weight for 2 is: 163841391
new weight for 0 is: -21
new weight for 1 is: -163841287
new weight for 2 is: 163841391
new weight for 0 is: -21
new weight for 1 is: 4194284
new weight for 2 is: -4194156
new weight for 0 is: -21
new weight for 1 is: 4194324
new weight for 2 is: -4194196
new weight for 0 is: -21
new weight for 1 is: -163841423
new weight for 2 is: 163841543
new weight for 0 is: -21
new weight for 1 is: -163841463
new weight for 2 is: 163841583
new weight for 0 is: -21
new weight for 1 is: 2954747
new weight for 2 is: -2954619
new weight for 0 is: -21
new weight for 1 is: 2954787
new weight for 2 is: -2954659
new weight for 0 is: -21
new weight for 1 is: -10589191
new weight for 2 is: 10589316
new weight for 0 is: -21
new weight for 1 is: -163842599
new weight for 2 is: 163842671
new weight for 0 is: -21
new weight for 1 is: -163842599
new weight for 2 is: 163842671
new weight for 0 is: -21
new weight for 1 is: -163842599
new weight for 2 is: 163842671
new weight for 0 is: -21
new weight for 1 is: -163842599
new weight for 2 is: 163842671
new weight for 0 is: -21
new weight for 1 is: 2955707
new weight for 2 is: -2955579
new weight for 0 is: -21
new weight for 1 is: 2955747
new weight for 2 is: -2955619
new weight for 0 is: -21
new weight for 1 is: -10589847
new weight for 2 is: 10589956
new weight for 0 is: -21
new weight for 1 is: -10589887
new weight for 2 is: 10589996
new weight for 0 is: -21
new weight for 1 is: -163843367
new weight for 2 is: 163843439
new weight for 0 is: -21
new weight for 1 is: -163843367
new weight for 2 is: 163843439
new weight for 0 is: -21
new weight for 1 is: -163843367
new weight for 2 is: 163843439
new weight for 0 is: -21
new weight for 1 is: -163843367
new weight for 2 is: 163843439
new weight for 0 is: -21
new weight for 1 is: 2956347
new weight for 2 is: -2956219
new weight for 0 is: -21
new weight for 1 is: 2956387
new weight for 2 is: -2956259
new weight for 0 is: -21
new weight for 1 is: -10592523
new weight for 2 is: 10592644
new weight for 0 is: -21
new weight for 1 is: -163846823
new weight for 2 is: 163846895
new weight for 0 is: -21
new weight for 1 is: -163773640
new weight for 2 is: 163773768
new weight for 0 is: -21
new weight for 1 is: -163773640
new weight for 2 is: 163773768
new weight for 0 is: -21
new weight for 1 is: -163773640
new weight for 2 is: 163773768
new weight for 0 is: -21
new weight for 1 is: -163773640
new weight for 2 is: 163773768
new weight for 0 is: -21
new weight for 1 is: 2958267
new weight for 2 is: -2958139
new weight for 0 is: -21
new weight for 1 is: 2958307
new weight for 2 is: -2958179
new weight for 0 is: -21
new weight for 1 is: -10593816
new weight for 2 is: 10593924
new weight for 0 is: -21
new weight for 1 is: -10593856
new weight for 2 is: 10593964
new weight for 0 is: -21
new weight for 1 is: -163847335
new weight for 2 is: 163847407
new weight for 0 is: -21
new weight for 1 is: -163847335
new weight for 2 is: 163847407
new weight for 0 is: -21
new weight for 1 is: -163847335
new weight for 2 is: 163847407
new weight for 0 is: -21
new weight for 1 is: -163847335
new weight for 2 is: 163847407
new weight for 0 is: -21
new weight for 1 is: 2959227
new weight for 2 is: -2959099
new weight for 0 is: -21
new weight for 1 is: 2959267
new weight for 2 is: -2959139
new weight for 0 is: -21
new weight for 1 is: -10595335
new weight for 2 is: 10595460
new weight for 0 is: -21
new weight for 1 is: -163848711
new weight for 2 is: 163848815
new weight for 0 is: -21
new weight for 1 is: -163848711
new weight for 2 is: 163848815
new weight for 0 is: -21
new weight for 1 is: 3121846
new weight for 2 is: -3121759
new weight for 0 is: -21
new weight for 1 is: 3121886
new weight for 2 is: -3121799
new weight for 0 is: -21
new weight for 1 is: 3121886
new weight for 2 is: -3121799
new weight for 0 is: -21
new weight for 1 is: 3121886
new weight for 2 is: -3121799
new weight for 0 is: -21
new weight for 1 is: -138674892
new weight for 2 is: 138675004
new weight for 0 is: -21
new weight for 1 is: -138792980
new weight for 2 is: 138793108
new weight for 0 is: -21
new weight for 1 is: -138792980
new weight for 2 is: 138793108
new weight for 0 is: -21
new weight for 1 is: -138792980
new weight for 2 is: 138793108
new weight for 0 is: -21
new weight for 1 is: -138792980
new weight for 2 is: 138793108
new weight for 0 is: -21
new weight for 1 is: 4194322
new weight for 2 is: -4194194
new weight for 0 is: -21
new weight for 1 is: 4194362
new weight for 2 is: -4194234
new weight for 0 is: -21
new weight for 1 is: 4194362
new weight for 2 is: -4194234
new weight for 0 is: -21
new weight for 1 is: -160260076
new weight for 2 is: 160260204
new weight for 0 is: -21
new weight for 1 is: -160260116
new weight for 2 is: 160260244
new weight for 0 is: -21
new weight for 1 is: -160260116
new weight for 2 is: 160260244
new weight for 0 is: -21
new weight for 1 is: 4194323
new weight for 2 is: -4194195
new weight for 0 is: -21
new weight for 1 is: 4194363
new weight for 2 is: -4194235
new weight for 0 is: -21
new weight for 1 is: 4194322
new weight for 2 is: -4194194
new weight for 0 is: -21
new weight for 1 is: 4194322
new weight for 2 is: -4194194
new weight for 0 is: -21
new weight for 1 is: 4194363
new weight for 2 is: -4194235
new weight for 0 is: -21
new weight for 1 is: 4194363
new weight for 2 is: -4194235
new weight for 0 is: -21
new weight for 1 is: -136433220
new weight for 2 is: 136433308
new weight for 0 is: -21
new weight for 1 is: -136409779
new weight for 2 is: 136409854
new weight for 0 is: -21
new weight for 1 is: -136409779
new weight for 2 is: 136409854
new weight for 0 is: -21
new weight for 1 is: -163849399
new weight for 2 is: 163849519
new weight for 0 is: -21
new weight for 1 is: -163849463
new weight for 2 is: 163849583
new weight for 0 is: -21
new weight for 1 is: -163849463
new weight for 2 is: 163849583
new weight for 0 is: -21
new weight for 1 is: -163849687
new weight for 2 is: 163849775
new weight for 0 is: -21
new weight for 1 is: -163849687
new weight for 2 is: 163849775
new weight for 0 is: -21
new weight for 1 is: 4194283
new weight for 2 is: -4194155
new weight for 0 is: -21
new weight for 1 is: 4194323
new weight for 2 is: -4194195
new weight for 0 is: -21
new weight for 1 is: 4194323
new weight for 2 is: -4194195
new weight for 0 is: -21
new weight for 1 is: 4194323
new weight for 2 is: -4194195
new weight for 0 is: -21
new weight for 1 is: -150233247
new weight for 2 is: 150233375
new weight for 0 is: -21
new weight for 1 is: -163812598
new weight for 2 is: 163812726
new weight for 0 is: -21
new weight for 1 is: -163812598
new weight for 2 is: 163812726
new weight for 0 is: -21
new weight for 1 is: -163812598
new weight for 2 is: 163812726
new weight for 0 is: -21
new weight for 1 is: -163812598
new weight for 2 is: 163812726
new weight for 0 is: -21
new weight for 1 is: 4194280
new weight for 2 is: -4194152
new weight for 0 is: -21
new weight for 1 is: 4194320
new weight for 2 is: -4194192
new weight for 0 is: -21
new weight for 1 is: -160260076
new weight for 2 is: 160260204
new weight for 0 is: -21
new weight for 1 is: -160260116
new weight for 2 is: 160260244
new weight for 0 is: -21
new weight for 1 is: -160260116
new weight for 2 is: 160260244
new weight for 0 is: -21
new weight for 1 is: -163850519
new weight for 2 is: 163850607
new weight for 0 is: -21
new weight for 1 is: -163850519
new weight for 2 is: 163850607
new weight for 0 is: -21
new weight for 1 is: 4194284
new weight for 2 is: -4194156
new weight for 0 is: -21
new weight for 1 is: 4194324
new weight for 2 is: -4194196
new weight for 0 is: -21
new weight for 1 is: -150230395
new weight for 2 is: 150230523
new weight for 0 is: -21
new weight for 1 is: -163780590
new weight for 2 is: 163780718
new weight for 0 is: -21
new weight for 1 is: -163780590
new weight for 2 is: 163780718
new weight for 0 is: -21
new weight for 1 is: -163780654
new weight for 2 is: 163780782
new weight for 0 is: -21
new weight for 1 is: -163780654
new weight for 2 is: 163780782
new weight for 0 is: -21
new weight for 1 is: -163780654
new weight for 2 is: 163780782
new weight for 0 is: -21
new weight for 1 is: -163780654
new weight for 2 is: 163780782
new weight for 0 is: -21
new weight for 1 is: -163780654
new weight for 2 is: 163780782
new weight for 0 is: -21
new weight for 1 is: -163852391
new weight for 2 is: 163852463
new weight for 0 is: -21
new weight for 1 is: -163852391
new weight for 2 is: 163852463
new weight for 0 is: -21
new weight for 1 is: -163852567
new weight for 2 is: 163852655
new weight for 0 is: -21
new weight for 1 is: -163852567
new weight for 2 is: 163852655
new weight for 0 is: -21
new weight for 1 is: 3603194
new weight for 2 is: -3603098
new weight for 0 is: -21
new weight for 1 is: 3603234
new weight for 2 is: -3603138
new weight for 0 is: -21
new weight for 1 is: 3603234
new weight for 2 is: -3603138
new weight for 0 is: -21
new weight for 1 is: 3603234
new weight for 2 is: -3603138
new weight for 0 is: -21
new weight for 1 is: -154281243
new weight for 2 is: 154281363
new weight for 0 is: -21
new weight for 1 is: -154281283
new weight for 2 is: 154281403
new weight for 0 is: -21
new weight for 1 is: 4194300
new weight for 2 is: -4194172
new weight for 0 is: -21
new weight for 1 is: 4194340
new weight for 2 is: -4194212
new weight for 0 is: -21
new weight for 1 is: 4194340
new weight for 2 is: -4194212
new weight for 0 is: -21
new weight for 1 is: 4194340
new weight for 2 is: -4194212
new weight for 0 is: -21
new weight for 1 is: -150134488
new weight for 2 is: 150134587
new weight for 0 is: -21
new weight for 1 is: 4194280
new weight for 2 is: -4194152
new weight for 0 is: -21
new weight for 1 is: 4194320
new weight for 2 is: -4194192
new weight for 0 is: -21
new weight for 1 is: -136434723
new weight for 2 is: 136434851
new weight for 0 is: -21
new weight for 1 is: 4194300
new weight for 2 is: -4194172
new weight for 0 is: -21
new weight for 1 is: 4194340
new weight for 2 is: -4194212
new weight for 0 is: -21
new weight for 1 is: -147653384
new weight for 2 is: 147653500
new weight for 0 is: -21
new weight for 1 is: -147745357
new weight for 2 is: 147745479
new weight for 0 is: -21
new weight for 1 is: -147745357
new weight for 2 is: 147745479
new weight for 0 is: -21
new weight for 1 is: -147745357
new weight for 2 is: 147745479
new weight for 0 is: -21
new weight for 1 is: -147745357
new weight for 2 is: 147745479
new weight for 0 is: -21
new weight for 1 is: -147745357
new weight for 2 is: 147745479
new weight for 0 is: -21
new weight for 1 is: -147745357
new weight for 2 is: 147745479
new weight for 0 is: -21
new weight for 1 is: 4194317
new weight for 2 is: -4194189
new weight for 0 is: -21
new weight for 1 is: 4194357
new weight for 2 is: -4194229
new weight for 0 is: -21
new weight for 1 is: 4194317
new weight for 2 is: -4194189
new weight for 0 is: -21
new weight for 1 is: 4194317
new weight for 2 is: -4194189
new weight for 0 is: -21
new weight for 1 is: -136407387
new weight for 2 is: 136407510
new weight for 0 is: -21
new weight for 1 is: 4194295
new weight for 2 is: -4194167
new weight for 0 is: -21
new weight for 1 is: 4194335
new weight for 2 is: -4194207
new weight for 0 is: -21
new weight for 1 is: -160260076
new weight for 2 is: 160260204
new weight for 0 is: -21
new weight for 1 is: -163854263
new weight for 2 is: 163854383
new weight for 0 is: -21
new weight for 1 is: -163854263
new weight for 2 is: 163854383
new weight for 0 is: -21
new weight for 1 is: 4194281
new weight for 2 is: -4194153
new weight for 0 is: -21
new weight for 1 is: 4194321
new weight for 2 is: -4194193
new weight for 0 is: -21
new weight for 1 is: 4194321
new weight for 2 is: -4194193
new weight for 0 is: -21
new weight for 1 is: 4194321
new weight for 2 is: -4194193
new weight for 0 is: -21
new weight for 1 is: -139059256
new weight for 2 is: 139059340
new weight for 0 is: -21
new weight for 1 is: 4194279
new weight for 2 is: -4194151
new weight for 0 is: -21
new weight for 1 is: 4194319
new weight for 2 is: -4194191
new weight for 0 is: -21
new weight for 1 is: -139314747
new weight for 2 is: 139314863
new weight for 0 is: -21
new weight for 1 is: -139314787
new weight for 2 is: 139314903
new weight for 0 is: -21
new weight for 1 is: -139314787
new weight for 2 is: 139314903
new weight for 0 is: -21
new weight for 1 is: -139314787
new weight for 2 is: 139314903
new weight for 0 is: -21
new weight for 1 is: -139314787
new weight for 2 is: 139314903
new weight for 0 is: -21
new weight for 1 is: -139314787
new weight for 2 is: 139314903
new weight for 0 is: -21
new weight for 1 is: -139314787
new weight for 2 is: 139314903
new weight for 0 is: -21
new weight for 1 is: -139314787
new weight for 2 is: 139314903
new weight for 0 is: -21
new weight for 1 is: -139314787
new weight for 2 is: 139314903
new weight for 0 is: -21
new weight for 1 is: 4194280
new weight for 2 is: -4194152
new weight for 0 is: -21
new weight for 1 is: 4194320
new weight for 2 is: -4194192
new weight for 0 is: -21
new weight for 1 is: 4194320
new weight for 2 is: -4194192
new weight for 0 is: -21
new weight for 1 is: 4194320
new weight for 2 is: -4194192
new weight for 0 is: -21
new weight for 1 is: -142266348
new weight for 2 is: 142266476
new weight for 0 is: -21
new weight for 1 is: -163854503
new weight for 2 is: 163854575
new weight for 0 is: -21
new weight for 1 is: -163854503
new weight for 2 is: 163854575
new weight for 0 is: -21
new weight for 1 is: -163854503
new weight for 2 is: 163854575
new weight for 0 is: -21
new weight for 1 is: -163854503
new weight for 2 is: 163854575
new weight for 0 is: -21
new weight for 1 is: 4194282
new weight for 2 is: -4194154
new weight for 0 is: -21
new weight for 1 is: 4194322
new weight for 2 is: -4194194
new weight for 0 is: -21
new weight for 1 is: -142266352
new weight for 2 is: 142266480
new weight for 0 is: -21
new weight for 1 is: -142266392
new weight for 2 is: 142266520
new weight for 0 is: -21
new weight for 1 is: -163854743
new weight for 2 is: 163854831
new weight for 0 is: -21
new weight for 1 is: 4194300
new weight for 2 is: -4194172
new weight for 0 is: -21
new weight for 1 is: 4194340
new weight for 2 is: -4194212
new weight for 0 is: -21
new weight for 1 is: 4194340
new weight for 2 is: -4194212
new weight for 0 is: -21
new weight for 1 is: -160260080
new weight for 2 is: 160260208
new weight for 0 is: -21
new weight for 1 is: -163854967
new weight for 2 is: 163855087
new weight for 0 is: -21
new weight for 1 is: -163854967
new weight for 2 is: 163855087
new weight for 0 is: -21
new weight for 1 is: 4194304
new weight for 2 is: -4194176
new weight for 0 is: -21
new weight for 1 is: 4194344
new weight for 2 is: -4194216
new weight for 0 is: -21
new weight for 1 is: -140619828
new weight for 2 is: 140619900
new weight for 0 is: -21
new weight for 1 is: 2651740
new weight for 2 is: -2651612
new weight for 0 is: -21
new weight for 1 is: 2651780
new weight for 2 is: -2651652
new weight for 0 is: -21
new weight for 1 is: -150222853
new weight for 2 is: 150222981
new weight for 0 is: -21
new weight for 1 is: -150222893
new weight for 2 is: 150223021
new weight for 0 is: -21
new weight for 1 is: -150222893
new weight for 2 is: 150223021
new weight for 0 is: -21
new weight for 1 is: -150222893
new weight for 2 is: 150223021
new weight for 0 is: -21
new weight for 1 is: -150222893
new weight for 2 is: 150223021
new weight for 0 is: -21
new weight for 1 is: -163855351
new weight for 2 is: 163855471
new weight for 0 is: -21
new weight for 1 is: -163855351
new weight for 2 is: 163855471
new weight for 0 is: -21
new weight for 1 is: 4194280
new weight for 2 is: -4194152
new weight for 0 is: -21
new weight for 1 is: 4194320
new weight for 2 is: -4194192
new weight for 0 is: -21
new weight for 1 is: -10461763
new weight for 2 is: 10461891
new weight for 0 is: -21
new weight for 1 is: -163856215
new weight for 2 is: 163856303
new weight for 0 is: -21
new weight for 1 is: -163856263
new weight for 2 is: 163856367
new weight for 0 is: -21
new weight for 1 is: -163856263
new weight for 2 is: 163856367
new weight for 0 is: -21
new weight for 1 is: -163856455
new weight for 2 is: 163856559
new weight for 0 is: -21
new weight for 1 is: -163856455
new weight for 2 is: 163856559
new weight for 0 is: -21
new weight for 1 is: 4194283
new weight for 2 is: -4194155
new weight for 0 is: -21
new weight for 1 is: 4194323
new weight for 2 is: -4194195
new weight for 0 is: -21
new weight for 1 is: -150223045
[...]
new weight for 2 is: 163940358
new weight for 0 is: -21
new weight for 1 is: -163940270
new weight for 2 is: 163940358
new weight for 0 is: -21
new weight for 1 is: -163926320
new weight for 2 is: 163926392
new weight for 0 is: -21
new weight for 1 is: -163928240
new weight for 2 is: 163928312
new weight for 0 is: -21
new weight for 1 is: -163928240
new weight for 2 is: 163928312
new weight for 0 is: -21
new weight for 1 is: -163946877
new weight for 2 is: 163946949
new weight for 0 is: -21
new weight for 1 is: -163946877
new weight for 2 is: 163946949
new weight for 0 is: -21
new weight for 1 is: -163946877
new weight for 2 is: 163946949
new weight for 0 is: -21
new weight for 1 is: -163946877
new weight for 2 is: 163946949
new weight for 0 is: -21
new weight for 1 is: -163946877
new weight for 2 is: 163946949
new weight for 0 is: -21
new weight for 1 is: -163946877
new weight for 2 is: 163946949
new weight for 0 is: -21
new weight for 1 is: -163948127
new weight for 2 is: 163948199
new weight for 0 is: -21
new weight for 1 is: -163955695
new weight for 2 is: 163955815
new weight for 0 is: -21
new weight for 1 is: -163955695
new weight for 2 is: 163955815
new weight for 0 is: -21
new weight for 1 is: -163805856
new weight for 2 is: 163805944
new weight for 0 is: -21
new weight for 1 is: 2445760
new weight for 2 is: -2445632
new weight for 0 is: -21
new weight for 1 is: 2445800
new weight for 2 is: -2445672
new weight for 0 is: -21
new weight for 1 is: 2445800
new weight for 2 is: -2445672
new weight for 0 is: -21
new weight for 1 is: -160260028
new weight for 2 is: 160260156
new weight for 0 is: -21
new weight for 1 is: -160260068
new weight for 2 is: 160260196
new weight for 0 is: -21
new weight for 1 is: -163807007
new weight for 2 is: 163807135
new weight for 0 is: -21
new weight for 1 is: -163807007
new weight for 2 is: 163807135
new weight for 0 is: -21
new weight for 1 is: -164027450
new weight for 2 is: 164027570
new weight for 0 is: -21
new weight for 1 is: -164027450
new weight for 2 is: 164027570
new weight for 0 is: -21
new weight for 1 is: -164091756
new weight for 2 is: 164091876
new weight for 0 is: -21
new weight for 1 is: 4194284
new weight for 2 is: -4194156
new weight for 0 is: -21
new weight for 1 is: 4194324
new weight for 2 is: -4194196
new weight for 0 is: -21
new weight for 1 is: -164091716
new weight for 2 is: 164091836
new weight for 0 is: -21
new weight for 1 is: -164091756
new weight for 2 is: 164091876
new weight for 0 is: -21
new weight for 1 is: -164091191
new weight for 2 is: 164091271
new weight for 0 is: -21
new weight for 1 is: -164091191
new weight for 2 is: 164091271
new weight for 0 is: -21
new weight for 1 is: -164091063
new weight for 2 is: 164091143
new weight for 0 is: -21
new weight for 1 is: -164091063
new weight for 2 is: 164091143
new weight for 0 is: -21
new weight for 1 is: -164090999
new weight for 2 is: 164091079
new weight for 0 is: -21
new weight for 1 is: -164090999
new weight for 2 is: 164091079
new weight for 0 is: -21
new weight for 1 is: -164090935
new weight for 2 is: 164091015
new weight for 0 is: -21
new weight for 1 is: -164090935
new weight for 2 is: 164091015
new weight for 0 is: -21
new weight for 1 is: -164090871
new weight for 2 is: 164090951
new weight for 0 is: -21
new weight for 1 is: -164090871
new weight for 2 is: 164090951
new weight for 0 is: -21
new weight for 1 is: -164090871
new weight for 2 is: 164090951
new weight for 0 is: -21
new weight for 1 is: -164090871
new weight for 2 is: 164090951
new weight for 0 is: -21
new weight for 1 is: -164090551
new weight for 2 is: 164090631
new weight for 0 is: -21
new weight for 1 is: -164090551
new weight for 2 is: 164090631
new weight for 0 is: -21
new weight for 1 is: -164090487
new weight for 2 is: 164090567
new weight for 0 is: -21
new weight for 1 is: -164090487
new weight for 2 is: 164090567
new weight for 0 is: -21
new weight for 1 is: -164090487
new weight for 2 is: 164090567
new weight for 0 is: -21
new weight for 1 is: -164090487
new weight for 2 is: 164090567
new weight for 0 is: -21
new weight for 1 is: -164090487
new weight for 2 is: 164090567
new weight for 0 is: -21
new weight for 1 is: -164090487
new weight for 2 is: 164090567
new weight for 0 is: -21
new weight for 1 is: -164090231
new weight for 2 is: 164090311
new weight for 0 is: -21
new weight for 1 is: -164090231
new weight for 2 is: 164090311
new weight for 0 is: -21
new weight for 1 is: -164090231
new weight for 2 is: 164090311
new weight for 0 is: -21
new weight for 1 is: -164090231
new weight for 2 is: 164090311
new weight for 0 is: -21
new weight for 1 is: -164090103
new weight for 2 is: 164090183
new weight for 0 is: -21
new weight for 1 is: -164090103
new weight for 2 is: 164090183
new weight for 0 is: -21
new weight for 1 is: -164090039
new weight for 2 is: 164090119
new weight for 0 is: -21
new weight for 1 is: -164090039
new weight for 2 is: 164090119
new weight for 0 is: -21
new weight for 1 is: -164090039
new weight for 2 is: 164090119
new weight for 0 is: -21
new weight for 1 is: -164090039
new weight for 2 is: 164090119
new weight for 0 is: -21
new weight for 1 is: -164089911
new weight for 2 is: 164089991
new weight for 0 is: -21
new weight for 1 is: -164089911
new weight for 2 is: 164089991
new weight for 0 is: -21
new weight for 1 is: -164089911
new weight for 2 is: 164089991
new weight for 0 is: -21
new weight for 1 is: -164089911
new weight for 2 is: 164089991
new weight for 0 is: -21
new weight for 1 is: -164089911
new weight for 2 is: 164089991
new weight for 0 is: -21
new weight for 1 is: -164089911
new weight for 2 is: 164089991
new weight for 0 is: -21
new weight for 1 is: -164089911
new weight for 2 is: 164089991
new weight for 0 is: -21
new weight for 1 is: -164089911
new weight for 2 is: 164089991
new weight for 0 is: -21
new weight for 1 is: -164089463
new weight for 2 is: 164089543
new weight for 0 is: -21
new weight for 1 is: -164089463
new weight for 2 is: 164089543
new weight for 0 is: -21
new weight for 1 is: -164089207
new weight for 2 is: 164089287
new weight for 0 is: -21
new weight for 1 is: -164089207
new weight for 2 is: 164089287
new weight for 0 is: -21
new weight for 1 is: -164088588
new weight for 2 is: 164088676
new weight for 0 is: -21
new weight for 1 is: -164088588
new weight for 2 is: 164088676
new weight for 0 is: -21
new weight for 1 is: -164088951
new weight for 2 is: 164089031
new weight for 0 is: -21
new weight for 1 is: -164088951
new weight for 2 is: 164089031
new weight for 0 is: -21
new weight for 1 is: -164088887
new weight for 2 is: 164088967
new weight for 0 is: -21
new weight for 1 is: -164088887
new weight for 2 is: 164088967
new weight for 0 is: -21
new weight for 1 is: -164088823
new weight for 2 is: 164088903
new weight for 0 is: -21
new weight for 1 is: -164088823
new weight for 2 is: 164088903
new weight for 0 is: -21
new weight for 1 is: -164088759
new weight for 2 is: 164088839
new weight for 0 is: -21
new weight for 1 is: -164088759
new weight for 2 is: 164088839
new weight for 0 is: -21
new weight for 1 is: -164088759
new weight for 2 is: 164088839
new weight for 0 is: -21
new weight for 1 is: -164088759
new weight for 2 is: 164088839
new weight for 0 is: -21
new weight for 1 is: -164088759
new weight for 2 is: 164088839
new weight for 0 is: -21
new weight for 1 is: -164088759
new weight for 2 is: 164088839
new weight for 0 is: -21
new weight for 1 is: -164087532
new weight for 2 is: 164087652
new weight for 0 is: -21
new weight for 1 is: -164087532
new weight for 2 is: 164087652
new weight for 0 is: -21
new weight for 1 is: -164088503
new weight for 2 is: 164088583
new weight for 0 is: -21
new weight for 1 is: -164088503
new weight for 2 is: 164088583
new weight for 0 is: -21
new weight for 1 is: -164088439
new weight for 2 is: 164088519
new weight for 0 is: -21
new weight for 1 is: -164088439
new weight for 2 is: 164088519
new weight for 0 is: -21
new weight for 1 is: -164088439
new weight for 2 is: 164088519
new weight for 0 is: -21
new weight for 1 is: -164088439
new weight for 2 is: 164088519
new weight for 0 is: -21
new weight for 1 is: -164088375
new weight for 2 is: 164088455
new weight for 0 is: -21
new weight for 1 is: -164088375
new weight for 2 is: 164088455
new weight for 0 is: -21
new weight for 1 is: -164088311
new weight for 2 is: 164088391
new weight for 0 is: -21
new weight for 1 is: -164088311
new weight for 2 is: 164088391
new weight for 0 is: -21
new weight for 1 is: -164088247
new weight for 2 is: 164088327
new weight for 0 is: -21
new weight for 1 is: -164088247
new weight for 2 is: 164088327
new weight for 0 is: -21
new weight for 1 is: -164088055
new weight for 2 is: 164088135
new weight for 0 is: -21
new weight for 1 is: -164088055
new weight for 2 is: 164088135
new weight for 0 is: -21
new weight for 1 is: -164087991
new weight for 2 is: 164088071
new weight for 0 is: -21
new weight for 1 is: -164087991
new weight for 2 is: 164088071
new weight for 0 is: -21
new weight for 1 is: -164087927
new weight for 2 is: 164088007
new weight for 0 is: -21
new weight for 1 is: -164087927
new weight for 2 is: 164088007
new weight for 0 is: -21
new weight for 1 is: -164087927
new weight for 2 is: 164088007
new weight for 0 is: -21
new weight for 1 is: -164087927
new weight for 2 is: 164088007
new weight for 0 is: -21
new weight for 1 is: -164087799
new weight for 2 is: 164087879
new weight for 0 is: -21
new weight for 1 is: -164087799
new weight for 2 is: 164087879
new weight for 0 is: -21
new weight for 1 is: -164087735
new weight for 2 is: 164087815
new weight for 0 is: -21
new weight for 1 is: -164087735
new weight for 2 is: 164087815
new weight for 0 is: -21
new weight for 1 is: -164087735
new weight for 2 is: 164087815
new weight for 0 is: -21
new weight for 1 is: -164087735
new weight for 2 is: 164087815
new weight for 0 is: -21
new weight for 1 is: -164087735
new weight for 2 is: 164087815
new weight for 0 is: -21
new weight for 1 is: -164087735
new weight for 2 is: 164087815
new weight for 0 is: -21
new weight for 1 is: -164086476
new weight for 2 is: 164086564
new weight for 0 is: -21
new weight for 1 is: -164086476
new weight for 2 is: 164086564
new weight for 0 is: -21
new weight for 1 is: -164087415
new weight for 2 is: 164087495
new weight for 0 is: -21
new weight for 1 is: -164087415
new weight for 2 is: 164087495
new weight for 0 is: -21
new weight for 1 is: -164087351
new weight for 2 is: 164087431
new weight for 0 is: -21
new weight for 1 is: -164087351
new weight for 2 is: 164087431
new weight for 0 is: -21
new weight for 1 is: -164087287
new weight for 2 is: 164087367
new weight for 0 is: -21
new weight for 1 is: -164087287
new weight for 2 is: 164087367
new weight for 0 is: -21
new weight for 1 is: -164087223
new weight for 2 is: 164087303
new weight for 0 is: -21
new weight for 1 is: -164087223
new weight for 2 is: 164087303
new weight for 0 is: -21
new weight for 1 is: -164087159
new weight for 2 is: 164087239
new weight for 0 is: -21
new weight for 1 is: -164087159
new weight for 2 is: 164087239
new weight for 0 is: -21
new weight for 1 is: -164087095
new weight for 2 is: 164087175
new weight for 0 is: -21
new weight for 1 is: -164087095
new weight for 2 is: 164087175
new weight for 0 is: -21
new weight for 1 is: -164086903
new weight for 2 is: 164086983
new weight for 0 is: -21
new weight for 1 is: -164086903
new weight for 2 is: 164086983
new weight for 0 is: -21
new weight for 1 is: -164086839
new weight for 2 is: 164086919
new weight for 0 is: -21
new weight for 1 is: -164086839
new weight for 2 is: 164086919
new weight for 0 is: -21
new weight for 1 is: -164086775
new weight for 2 is: 164086855
new weight for 0 is: -21
new weight for 1 is: -164086775
new weight for 2 is: 164086855
new weight for 0 is: -21
new weight for 1 is: -164086711
new weight for 2 is: 164086791
new weight for 0 is: -21
new weight for 1 is: -164086711
new weight for 2 is: 164086791
new weight for 0 is: -21
new weight for 1 is: -164086647
new weight for 2 is: 164086727
new weight for 0 is: -21
new weight for 1 is: -164086647
new weight for 2 is: 164086727
new weight for 0 is: -21
new weight for 1 is: -164086647
new weight for 2 is: 164086727
new weight for 0 is: -21
new weight for 1 is: -164086647
new weight for 2 is: 164086727
new weight for 0 is: -21
new weight for 1 is: -164086647
new weight for 2 is: 164086727
new weight for 0 is: -21
new weight for 1 is: -164086647
new weight for 2 is: 164086727
new weight for 0 is: -21
new weight for 1 is: -164085420
new weight for 2 is: 164085540
new weight for 0 is: -21
new weight for 1 is: -164085420
new weight for 2 is: 164085540
new weight for 0 is: -21
new weight for 1 is: -164086391
new weight for 2 is: 164086471
new weight for 0 is: -21
new weight for 1 is: -164086391
new weight for 2 is: 164086471
new weight for 0 is: -21
new weight for 1 is: -164086327
new weight for 2 is: 164086407
new weight for 0 is: -21
new weight for 1 is: -164086327
new weight for 2 is: 164086407
new weight for 0 is: -21
new weight for 1 is: -164086263
new weight for 2 is: 164086343
new weight for 0 is: -21
new weight for 1 is: -164086263
new weight for 2 is: 164086343
new weight for 0 is: -21
new weight for 1 is: -164086199
new weight for 2 is: 164086279
new weight for 0 is: -21
new weight for 1 is: -164086199
new weight for 2 is: 164086279
new weight for 0 is: -21
new weight for 1 is: -164086135
new weight for 2 is: 164086215
new weight for 0 is: -21
new weight for 1 is: -164086135
new weight for 2 is: 164086215
new weight for 0 is: -21
new weight for 1 is: -164086071
new weight for 2 is: 164086151
new weight for 0 is: -21
new weight for 1 is: -164086071
new weight for 2 is: 164086151
new weight for 0 is: -21
new weight for 1 is: -164085879
new weight for 2 is: 164085959
new weight for 0 is: -21
new weight for 1 is: -164085879
new weight for 2 is: 164085959
new weight for 0 is: -21
new weight for 1 is: -164085815
new weight for 2 is: 164085895
new weight for 0 is: -21
new weight for 1 is: -164085815
new weight for 2 is: 164085895
new weight for 0 is: -21
new weight for 1 is: -164085751
new weight for 2 is: 164085831
new weight for 0 is: -21
new weight for 1 is: -164085751
new weight for 2 is: 164085831
new weight for 0 is: -21
new weight for 1 is: -164085687
new weight for 2 is: 164085767
new weight for 0 is: -21
new weight for 1 is: -164085687
new weight for 2 is: 164085767
new weight for 0 is: -21
new weight for 1 is: -164085623
new weight for 2 is: 164085703
new weight for 0 is: -21
new weight for 1 is: -164085623
new weight for 2 is: 164085703
new weight for 0 is: -21
new weight for 1 is: 4194332
new weight for 2 is: -4194204
new weight for 0 is: -21
new weight for 1 is: 4194372
new weight for 2 is: -4194244
new weight for 0 is: -21
new weight for 1 is: 4194372
new weight for 2 is: -4194244
new weight for 0 is: -21
new weight for 1 is: 4194372
new weight for 2 is: -4194244
new weight for 0 is: -21
new weight for 1 is: -10002524
new weight for 2 is: 10002596
new weight for 0 is: -21
new weight for 1 is: -10002564
new weight for 2 is: 10002636
new weight for 0 is: -21
new weight for 1 is: 2960812
new weight for 2 is: -2960724
new weight for 0 is: -21
new weight for 1 is: 2960852
new weight for 2 is: -2960764
new weight for 0 is: -21
new weight for 1 is: 2960852
new weight for 2 is: -2960764
new weight for 0 is: -21
new weight for 1 is: -10001364
new weight for 2 is: 10001436
new weight for 0 is: -21
new weight for 1 is: -10001404
new weight for 2 is: 10001476
new weight for 0 is: -21
new weight for 1 is: -163772448
new weight for 2 is: 163772536
new weight for 0 is: -21
new weight for 1 is: -163772448
new weight for 2 is: 163772536
new weight for 0 is: -21
new weight for 1 is: 2962387
new weight for 2 is: -2962307
new weight for 0 is: -21
new weight for 1 is: 2962520
new weight for 2 is: -2962440
new weight for 0 is: -21
new weight for 1 is: 2962520
new weight for 2 is: -2962440
new weight for 0 is: -21
new weight for 1 is: 2962520
new weight for 2 is: -2962440
new weight for 0 is: -21
new weight for 1 is: 2962520
new weight for 2 is: -2962440
new weight for 0 is: -21
new weight for 1 is: 2962520
new weight for 2 is: -2962440
new weight for 0 is: -21
new weight for 1 is: 2962520
new weight for 2 is: -2962440
new weight for 0 is: -21
new weight for 1 is: 2962520
new weight for 2 is: -2962440
new weight for 0 is: -21
new weight for 1 is: 2962520
new weight for 2 is: -2962440
new weight for 0 is: -21
new weight for 1 is: -9996660
new weight for 2 is: 9996764
new weight for 0 is: -21
new weight for 1 is: -9996700
new weight for 2 is: 9996804
new weight for 0 is: -21
new weight for 1 is: 2964492
new weight for 2 is: -2964372
new weight for 0 is: -21
new weight for 1 is: 2964532
new weight for 2 is: -2964412
new weight for 0 is: -21
new weight for 1 is: -136417974
new weight for 2 is: 136418040
new weight for 0 is: -21
new weight for 1 is: -136418014
new weight for 2 is: 136418080
new weight for 0 is: -21
new weight for 1 is: -136418014
new weight for 2 is: 136418080
new weight for 0 is: -21
new weight for 1 is: -136411723
new weight for 2 is: 136411838
new weight for 0 is: -21
new weight for 1 is: -136411723
new weight for 2 is: 136411838
new weight for 0 is: -21
new weight for 1 is: -164074151
new weight for 2 is: 164074247
new weight for 0 is: -21
new weight for 1 is: -164074151
new weight for 2 is: 164074247
new weight for 0 is: -21
new weight for 1 is: -164074151
new weight for 2 is: 164074247
new weight for 0 is: -21
new weight for 1 is: -164073052
new weight for 2 is: 164073124
new weight for 0 is: -21
new weight for 1 is: -164073052
new weight for 2 is: 164073124
new weight for 0 is: -21
new weight for 1 is: -164074023
new weight for 2 is: 164074119
new weight for 0 is: -21
new weight for 1 is: -164074023
new weight for 2 is: 164074119
new weight for 0 is: -21
new weight for 1 is: -164073959
new weight for 2 is: 164074055
new weight for 0 is: -21
new weight for 1 is: -164073959
new weight for 2 is: 164074055
new weight for 0 is: -21
new weight for 1 is: 4194284
new weight for 2 is: -4194156
new weight for 0 is: -21
new weight for 1 is: 4194324
new weight for 2 is: -4194196
new weight for 0 is: -21
new weight for 1 is: -138994436
new weight for 2 is: 138994556
new weight for 0 is: -21
new weight for 1 is: -136435945
new weight for 2 is: 136436036
new weight for 0 is: -21
new weight for 1 is: -136435945
new weight for 2 is: 136436036
new weight for 0 is: -21
new weight for 1 is: -164034039
new weight for 2 is: 164034119
new weight for 0 is: -21
new weight for 1 is: -164034039
new weight for 2 is: 164034119
new weight for 0 is: -21
new weight for 1 is: -164034039
new weight for 2 is: 164034119
new weight for 0 is: -21
new weight for 1 is: -164034039
new weight for 2 is: 164034119
new weight for 0 is: -21
new weight for 1 is: 3304167
new weight for 2 is: -3304039
new weight for 0 is: -21
new weight for 1 is: 3304207
new weight for 2 is: -3304079
new weight for 0 is: -21
new weight for 1 is: -142266352
new weight for 2 is: 142266480
new weight for 0 is: -21
new weight for 1 is: -164033719
new weight for 2 is: 164033799
new weight for 0 is: -21
new weight for 1 is: -164033719
new weight for 2 is: 164033799
new weight for 0 is: -21
new weight for 1 is: 3304167
new weight for 2 is: -3304039
new weight for 0 is: -21
new weight for 1 is: 3304207
new weight for 2 is: -3304079
new weight for 0 is: -21
new weight for 1 is: -145107708
new weight for 2 is: 145107836
new weight for 0 is: -21
new weight for 1 is: -145107748
new weight for 2 is: 145107876
new weight for 0 is: -21
new weight for 1 is: 4194283
new weight for 2 is: -4194155
new weight for 0 is: -21
new weight for 1 is: 4194323
new weight for 2 is: -4194195
new weight for 0 is: -21
new weight for 1 is: -145104332
new weight for 2 is: 145104460
Exiting @ tick 6438259000 because exiting with last active thread context
Simulated exit code not 0! Exit code is 1
