Running SPEC test: leela

/home/victorfu/cpu2017/benchspec/CPU/541.leela_r
/home/victorfu/finalproject/gem5/build/X86/gem6.opt --outdir="/home/victorfu/output/bench_spec/fastforward/leela" /home/victorfu/finalproject/gem5/configs/example/se.py --cmd=leela_r_base.victor_jun10-m64 --standard-switch=0 --warmup-insts=71000000 --caches  --l2cache --l1i_size=16kB  --l1d_size=64kB --l2_size=256kB --cpu-type=DerivO3CPU  --mem-type=DDR3_1600_8x8  --cpu-clock=1GHz --maxinsts=10000000 --options="ref.sgf" --l2-hwp-type=TaggedPrefetcher --mlu_pf_type=perceptron

gem5 Simulator System.  http://gem5.org
gem5 is copyrighted software; use the --copyright option for details.

gem5 compiled Jun 14 2019 14:23:51
gem5 started Jun 14 2019 15:13:53
gem5 executing on tetracosa.cs.ucla.edu, pid 138766
command line: /home/victorfu/finalproject/gem5/build/X86/gem6.opt --outdir=/home/victorfu/output/bench_spec/fastforward/leela /home/victorfu/finalproject/gem5/configs/example/se.py --cmd=leela_r_base.victor_jun10-m64 --standard-switch=0 --warmup-insts=71000000 --caches --l2cache --l1i_size=16kB --l1d_size=64kB --l2_size=256kB --cpu-type=DerivO3CPU --mem-type=DDR3_1600_8x8 --cpu-clock=1GHz --maxinsts=10000000 --options=ref.sgf --l2-hwp-type=TaggedPrefetcher --mlu_pf_type=perceptron

info: Standard input is not a terminal, disabling listeners.
Warning: l2-hwp-type is set ( TaggedPrefetcher ), but the current l2 has a default Hardware Prefetcher of type <class 'm5.params.NullSimObject'> , using the specified by the flag option.
MLU-Prefetch Perceptron Enabled.
Global frequency set at 1000000000000 ticks per second
warn: DRAM device capacity (8192 Mbytes) does not match the address range assigned (512 Mbytes)
warn: Sockets disabled, not accepting gdb connections
**** REAL SIMULATION ****
info: Entering event queue @ 0.  Starting simulation...
accept
accept
accept
accept
accept
accept
accept
accept
accept
accept
accept
accept
accept
accept
accept
accept
accept
accept
accept
accept
accept
accept
accept
accept
accept
accept
accept
accept
accept
accept
accept
accept
accept
accept
accept
accept
accept
accept
accept
accept
accept
accept
accept
accept
accept
accept
accept
accept
accept
accept
accept
accept
accept
accept
accept
accept
accept
accept
accept
accept
accept
accept
accept
accept
accept
accept
accept
accept
accept
accept
accept
accept
accept
accept
accept
accept
accept
accept
accept
accept
accept
accept
accept
accept
accept
accept
accept
accept
accept
accept
accept
accept
accept
accept
accept
accept
accept
accept
accept
accept
accept
accept
accept
accept
accept
accept
accept
accept
accept
accept
accept
accept
accept
accept
accept
accept
accept
accept
accept
accept
accept
accept
accept
accept
info: Increasing stack size by one page.
accept
accept
accept
accept
accept
accept
accept
accept
accept
accept
accept
accept
accept
accept
accept
accept
accept
accept
accept
accept
accept
accept
accept
accept
accept
accept
accept
accept
accept
accept
accept
accept
accept
accept
accept
accept
accept
accept
accept
accept
accept
accept
accept
accept
accept
accept
accept
accept
accept
accept
accept
accept
accept
accept
accept
accept
accept
accept
accept
accept
accept
accept
accept
accept
accept
accept
accept
accept
accept
accept
accept
accept
accept
accept
accept
accept
accept
accept
accept
accept
accept
accept
accept
accept
accept
accept
accept
accept
accept
accept
accept
accept
accept
accept
accept
accept
accept
accept
accept
accept
accept
accept
accept
accept
accept
accept
accept
accept
accept
accept
accept
accept
accept
accept
accept
accept
accept
accept
accept
accept
accept
accept
accept
accept
accept
accept
accept
accept
accept
accept
accept
accept
accept
accept
accept
accept
accept
accept
accept
accept
accept
accept
accept
accept
accept
accept
accept
accept
accept
accept
accept
accept
weight of 0 is -0.494007
weight of 1 is -0.003506
weight of 2 is -0.355556
weight of 3 is -1.000000
not used!
weight of 0 is -0.988023
weight of 1 is -0.004544
weight of 2 is -1.244444
weight of 3 is -2.000000
not used!
deny
deny
weight of 0 is -1.482039
weight of 1 is -0.004565
weight of 2 is -2.311111
weight of 3 is -3.000000
not used!
deny
deny
deny
deny
deny
deny
weight of 0 is -0.988526
weight of 1 is -0.003833
weight of 2 is -2.311111
weight of 3 is -2.000000
used!
weight of 0 is -0.495013
weight of 1 is -0.003100
weight of 2 is -2.311111
weight of 3 is -1.000000
used!
deny
deny
deny
deny
weight of 0 is -0.989029
weight of 1 is -0.003215
weight of 2 is -2.666667
weight of 3 is -2.000000
not used!
deny
deny
weight of 0 is -0.495516
weight of 1 is -0.003196
weight of 2 is -2.666667
weight of 3 is -1.000000
used!
weight of 0 is -0.002003
weight of 1 is -0.003177
weight of 2 is -2.666667
weight of 3 is 0.000000
used!
weight of 0 is -0.496019
weight of 1 is -0.003206
weight of 2 is -3.733333
weight of 3 is -1.000000
not used!
deny
deny
deny
deny
weight of 0 is -0.002506
weight of 1 is 0.037457
weight of 2 is -3.733333
weight of 3 is 0.000000
used!
weight of 0 is 0.491007
weight of 1 is 0.078120
weight of 2 is -3.733333
weight of 3 is 1.000000
used!
accept
accept
weight of 0 is 0.985019
weight of 1 is 0.118801
weight of 2 is -3.200000
weight of 3 is 2.000000
used!
weight of 0 is 1.479032
weight of 1 is 0.159483
weight of 2 is -2.666667
weight of 3 is 3.000000
used!
accept
accept
weight of 0 is 1.972545
weight of 1 is 0.200249
weight of 2 is -2.666667
weight of 3 is 4.000000
used!
weight of 0 is 2.466058
weight of 1 is 0.241015
weight of 2 is -2.666667
weight of 3 is 5.000000
used!
accept
accept
weight of 0 is 1.972041
weight of 1 is 0.199993
weight of 2 is -3.377778
weight of 3 is 4.000000
not used!
accept
accept
weight of 0 is 1.478024
weight of 1 is 0.199965
weight of 2 is -3.377778
weight of 3 is 3.000000
not used!
accept
accept
weight of 0 is 0.984018
weight of 1 is 0.199063
weight of 2 is -3.377778
weight of 3 is 2.000000
not used!
weight of 0 is 0.490505
weight of 1 is 0.159027
weight of 2 is -3.377778
weight of 3 is 1.000000
not used!
accept
accept
accept
accept
accept
accept
weight of 0 is -0.002991
weight of 1 is 0.157712
weight of 2 is -3.377778
weight of 3 is 0.000000
not used!
deny
deny
weight of 0 is -0.496488
weight of 1 is 0.157707
weight of 2 is -4.444444
weight of 3 is -1.000000
not used!
deny
deny
weight of 0 is -0.989985
weight of 1 is 0.157661
weight of 2 is -4.622222
weight of 3 is -2.000000
not used!
deny
deny
weight of 0 is -1.483988
weight of 1 is 0.116472
weight of 2 is -5.333333
weight of 3 is -3.000000
not used!
deny
deny
deny
deny
weight of 0 is -1.977889
weight of 1 is 0.108234
weight of 2 is -5.333333
weight of 3 is -4.000000
not used!
deny
deny
weight of 0 is -2.471383
weight of 1 is 0.075056
weight of 2 is -5.422222
weight of 3 is -5.000000
not used!
deny
deny
deny
deny
weight of 0 is -1.977870
weight of 1 is 0.080599
weight of 2 is -5.422222
weight of 3 is -4.000000
used!
weight of 0 is -1.484357
weight of 1 is 0.086141
weight of 2 is -5.422222
weight of 3 is -3.000000
used!
deny
deny
weight of 0 is -1.978374
weight of 1 is 0.045102
weight of 2 is -5.955556
weight of 3 is -4.000000
not used!
deny
deny
deny
deny
weight of 0 is -1.484632
weight of 1 is 0.045169
weight of 2 is -5.333333
weight of 3 is -3.000000
used!
weight of 0 is -0.990890
weight of 1 is 0.045236
weight of 2 is -4.711111
weight of 3 is -2.000000
used!
weight of 0 is -1.484383
weight of 1 is 0.002452
weight of 2 is -4.800000
weight of 3 is -3.000000
not used!
deny
deny
weight of 0 is -0.990870
weight of 1 is 0.010079
weight of 2 is -4.800000
weight of 3 is -2.000000
used!
weight of 0 is -0.497357
weight of 1 is 0.017707
weight of 2 is -4.800000
weight of 3 is -1.000000
used!
weight of 0 is -0.990849
weight of 1 is 0.017679
weight of 2 is -5.600000
weight of 3 is -2.000000
not used!
deny
deny
weight of 0 is -0.497337
weight of 1 is 0.017698
weight of 2 is -5.600000
weight of 3 is -1.000000
used!
weight of 0 is -0.003824
weight of 1 is 0.017716
weight of 2 is -5.600000
weight of 3 is 0.000000
used!
weight of 0 is -0.497317
weight of 1 is 0.017597
weight of 2 is -6.933333
weight of 3 is -1.000000
not used!
deny
deny
weight of 0 is -0.003805
weight of 1 is 0.048159
weight of 2 is -6.933333
weight of 3 is 0.000000
used!
weight of 0 is 0.489708
weight of 1 is 0.078721
weight of 2 is -6.933333
weight of 3 is 1.000000
used!
weight of 0 is -0.003785
weight of 1 is 0.078720
weight of 2 is -6.933333
weight of 3 is 0.000000
not used!
accept
accept
weight of 0 is 0.489728
weight of 1 is 0.078739
weight of 2 is -6.933333
weight of 3 is 1.000000
used!
weight of 0 is 0.983241
weight of 1 is 0.078757
weight of 2 is -6.933333
weight of 3 is 2.000000
used!
weight of 0 is 0.489728
weight of 1 is 0.077123
weight of 2 is -6.933333
weight of 3 is 1.000000
not used!
deny
deny
accept
accept
weight of 0 is -0.003785
weight of 1 is 0.064705
weight of 2 is -6.933333
weight of 3 is 0.000000
not used!
weight of 0 is -0.497832
weight of 1 is 0.032369
weight of 2 is -7.111111
weight of 3 is -1.000000
not used!
deny
deny
weight of 0 is -0.991185
weight of 1 is -0.012953
weight of 2 is -8.177778
weight of 3 is -2.000000
not used!
weight of 0 is -1.485201
weight of 1 is -0.055799
weight of 2 is -8.711111
weight of 3 is -3.000000
not used!
deny
deny
weight of 0 is -1.979214
weight of 1 is -0.069939
weight of 2 is -9.600000
weight of 3 is -4.000000
not used!
deny
deny
weight of 0 is -1.485701
weight of 1 is -0.069676
weight of 2 is -9.600000
weight of 3 is -3.000000
used!
weight of 0 is -0.992188
weight of 1 is -0.069413
weight of 2 is -9.600000
weight of 3 is -2.000000
used!
weight of 0 is -1.485908
weight of 1 is -0.072142
weight of 2 is -10.844444
weight of 3 is -3.000000
not used!
deny
deny
deny
deny
deny
deny
weight of 0 is -1.979628
weight of 1 is -0.088935
weight of 2 is -12.088889
weight of 3 is -4.000000
not used!
deny
deny
weight of 0 is -1.486115
weight of 1 is -0.074601
weight of 2 is -12.088889
weight of 3 is -3.000000
used!
weight of 0 is -0.992602
weight of 1 is -0.060266
weight of 2 is -12.088889
weight of 3 is -2.000000
used!
deny
deny
weight of 0 is -1.486184
weight of 1 is -0.071421
weight of 2 is -12.266667
weight of 3 is -3.000000
not used!
deny
deny
weight of 0 is -0.992671
weight of 1 is -0.071402
weight of 2 is -12.266667
weight of 3 is -2.000000
used!
weight of 0 is -0.499158
weight of 1 is -0.071383
weight of 2 is -12.266667
weight of 3 is -1.000000
used!
deny
deny
weight of 0 is -0.992740
weight of 1 is -0.071403
weight of 2 is -12.355556
weight of 3 is -2.000000
not used!
deny
deny
weight of 0 is -0.499227
weight of 1 is -0.071385
weight of 2 is -12.355556
weight of 3 is -1.000000
used!
weight of 0 is -0.005714
weight of 1 is -0.071366
weight of 2 is -12.355556
weight of 3 is 0.000000
used!
weight of 0 is -0.499407
weight of 1 is -0.085130
weight of 2 is -13.244444
weight of 3 is -1.000000
not used!
weight of 0 is -0.992988
weight of 1 is -0.094170
weight of 2 is -13.866667
weight of 3 is -2.000000
not used!
deny
deny
weight of 0 is -0.499476
weight of 1 is -0.094151
weight of 2 is -13.866667
weight of 3 is -1.000000
used!
weight of 0 is -0.005963
weight of 1 is -0.094132
weight of 2 is -13.866667
weight of 3 is 0.000000
used!
weight of 0 is -0.499476
weight of 1 is -0.110910
weight of 2 is -13.866667
weight of 3 is -1.000000
not used!
deny
deny
deny
deny
weight of 0 is -0.992988
weight of 1 is -0.110947
weight of 2 is -13.866667
weight of 3 is -2.000000
not used!
deny
deny
weight of 0 is -0.499476
weight of 1 is -0.089962
weight of 2 is -13.866667
weight of 3 is -1.000000
used!
weight of 0 is -0.005963
weight of 1 is -0.068976
weight of 2 is -13.866667
weight of 3 is 0.000000
used!
accept
accept
weight of 0 is 0.487550
weight of 1 is -0.060973
weight of 2 is -13.866667
weight of 3 is 1.000000
used!
weight of 0 is 0.981063
weight of 1 is -0.052970
weight of 2 is -13.866667
weight of 3 is 2.000000
used!
deny
deny
weight of 0 is 0.487342
weight of 1 is -0.069768
weight of 2 is -14.044444
weight of 3 is 1.000000
not used!
accept
accept
weight of 0 is -0.006339
weight of 1 is -0.072088
weight of 2 is -14.933333
weight of 3 is 0.000000
not used!
accept
accept
weight of 0 is 0.487174
weight of 1 is -0.072069
weight of 2 is -14.933333
weight of 3 is 1.000000
used!
weight of 0 is 0.980687
weight of 1 is -0.072050
weight of 2 is -14.933333
weight of 3 is 2.000000
used!
accept
accept
weight of 0 is 0.486963
weight of 1 is -0.089182
weight of 2 is -16.177778
weight of 3 is 1.000000
not used!
weight of 0 is -0.006549
weight of 1 is -0.106257
weight of 2 is -16.177778
weight of 3 is 0.000000
not used!
deny
deny
weight of 0 is -0.500227
weight of 1 is -0.119671
weight of 2 is -16.177778
weight of 3 is -1.000000
not used!
weight of 0 is -0.993740
weight of 1 is -0.133029
weight of 2 is -16.177778
weight of 3 is -2.000000
not used!
deny
deny
deny
deny
deny
deny
deny
deny
deny
deny
weight of 0 is -1.487812
weight of 1 is -0.178605
weight of 2 is -17.422222
weight of 3 is -3.000000
not used!
deny
deny
weight of 0 is -1.981325
weight of 1 is -0.224124
weight of 2 is -17.422222
weight of 3 is -4.000000
not used!
weight of 0 is -2.475397
weight of 1 is -0.269603
weight of 2 is -18.488889
weight of 3 is -5.000000
not used!
deny
deny
deny
deny
weight of 0 is -2.969468
weight of 1 is -0.269608
weight of 2 is -18.488889
weight of 3 is -6.000000
not used!
weight of 0 is -3.462981
weight of 1 is -0.289729
weight of 2 is -18.488889
weight of 3 is -7.000000
not used!
deny
deny
weight of 0 is -2.969469
weight of 1 is -0.280223
weight of 2 is -18.488889
weight of 3 is -6.000000
used!
weight of 0 is -2.475956
weight of 1 is -0.270716
weight of 2 is -18.488889
weight of 3 is -5.000000
used!
weight of 0 is -2.969469
weight of 1 is -0.311551
weight of 2 is -18.488889
weight of 3 is -6.000000
not used!
deny
deny
weight of 0 is -3.462982
weight of 1 is -0.338285
weight of 2 is -18.488889
weight of 3 is -7.000000
not used!
deny
deny
weight of 0 is -3.956996
weight of 1 is -0.352357
weight of 2 is -18.488889
weight of 3 is -8.000000
not used!
deny
deny
deny
deny
deny
deny
weight of 0 is -3.463484
weight of 1 is -0.336951
weight of 2 is -18.488889
weight of 3 is -7.000000
used!
weight of 0 is -2.969971
weight of 1 is -0.321545
weight of 2 is -18.488889
weight of 3 is -6.000000
used!
weight of 0 is -3.464042
weight of 1 is -0.366886
weight of 2 is -19.022222
weight of 3 is -7.000000
not used!
deny
deny
deny
deny
weight of 0 is -2.970529
weight of 1 is -0.362901
weight of 2 is -19.022222
weight of 3 is -6.000000
used!
weight of 0 is -2.477016
weight of 1 is -0.358916
weight of 2 is -19.022222
weight of 3 is -5.000000
used!
deny
deny
weight of 0 is -1.983504
weight of 1 is -0.341256
weight of 2 is -19.022222
weight of 3 is -4.000000
used!
weight of 0 is -1.489991
weight of 1 is -0.323596
weight of 2 is -19.022222
weight of 3 is -3.000000
used!
deny
deny
deny
deny
weight of 0 is -0.996478
weight of 1 is -0.305917
weight of 2 is -19.022222
weight of 3 is -2.000000
used!
weight of 0 is -0.502965
weight of 1 is -0.288238
weight of 2 is -19.022222
weight of 3 is -1.000000
used!
weight of 0 is -0.996902
weight of 1 is -0.322785
weight of 2 is -20.266667
weight of 3 is -2.000000
not used!
deny
deny
weight of 0 is -0.503390
weight of 1 is -0.318882
weight of 2 is -20.266667
weight of 3 is -1.000000
used!
weight of 0 is -0.009877
weight of 1 is -0.314979
weight of 2 is -20.266667
weight of 3 is 0.000000
used!
accept
accept
weight of 0 is -0.503435
weight of 1 is -0.328036
weight of 2 is -21.555556
weight of 3 is -1.000000
not used!
weight of 0 is -0.996948
weight of 1 is -0.331679
weight of 2 is -21.555556
weight of 3 is -2.000000
not used!
deny
deny
weight of 0 is -0.503435
weight of 1 is -0.314038
weight of 2 is -21.555556
weight of 3 is -1.000000
used!
weight of 0 is -0.009922
weight of 1 is -0.296396
weight of 2 is -21.555556
weight of 3 is 0.000000
used!
weight of 0 is -0.503859
weight of 1 is -0.313077
weight of 2 is -22.800000
weight of 3 is -1.000000
not used!
deny
deny
warn: ignoring syscall access(...)
deny
deny
weight of 0 is -0.010346
weight of 1 is -0.295379
weight of 2 is -22.800000
weight of 3 is 0.000000
used!
weight of 0 is 0.483167
weight of 1 is -0.277682
weight of 2 is -22.800000
weight of 3 is 1.000000
used!
weight of 0 is -0.010346
weight of 1 is -0.294344
weight of 2 is -22.800000
weight of 3 is 0.000000
not used!
accept
accept
weight of 0 is -0.503858
weight of 1 is -0.310294
weight of 2 is -22.800000
weight of 3 is -1.000000
not used!
deny
deny
deny
deny
weight of 0 is -0.997371
weight of 1 is -0.338738
weight of 2 is -22.800000
weight of 3 is -2.000000
not used!
deny
deny
deny
deny
deny
deny
weight of 0 is -0.503858
weight of 1 is -0.337799
weight of 2 is -22.800000
weight of 3 is -1.000000
used!
weight of 0 is -0.010345
weight of 1 is -0.336859
weight of 2 is -22.800000
weight of 3 is 0.000000
used!
weight of 0 is -0.503858
weight of 1 is -0.336916
weight of 2 is -22.800000
weight of 3 is -1.000000
not used!
deny
deny
deny
deny
deny
deny
weight of 0 is -0.010345
weight of 1 is -0.325380
weight of 2 is -22.800000
weight of 3 is 0.000000
used!
weight of 0 is 0.483167
weight of 1 is -0.313845
weight of 2 is -22.800000
weight of 3 is 1.000000
used!
accept
accept
weight of 0 is 0.976680
weight of 1 is -0.313826
weight of 2 is -22.800000
weight of 3 is 2.000000
used!
weight of 0 is 1.470193
weight of 1 is -0.313807
weight of 2 is -22.800000
weight of 3 is 3.000000
used!
accept
accept
accept
accept
accept
accept
weight of 0 is 0.976328
weight of 1 is -0.315394
weight of 2 is -22.800000
weight of 3 is 2.000000
not used!
weight of 0 is 0.482815
weight of 1 is -0.344044
weight of 2 is -22.800000
weight of 3 is 1.000000
not used!
accept
accept
weight of 0 is -0.010698
weight of 1 is -0.344063
weight of 2 is -22.800000
weight of 3 is 0.000000
not used!
accept
accept
weight of 0 is -0.504210
weight of 1 is -0.374557
weight of 2 is -22.800000
weight of 3 is -1.000000
not used!
weight of 0 is -0.998097
weight of 1 is -0.405108
weight of 2 is -22.977778
weight of 3 is -2.000000
not used!
weight of 0 is -1.492119
weight of 1 is -0.406109
weight of 2 is -24.133333
weight of 3 is -3.000000
not used!
deny
deny
weight of 0 is -1.986003
weight of 1 is -0.406979
weight of 2 is -24.311111
weight of 3 is -4.000000
not used!
deny
deny
weight of 0 is -2.480019
weight of 1 is -0.447837
weight of 2 is -25.377778
weight of 3 is -5.000000
not used!
deny
deny
weight of 0 is -1.986506
weight of 1 is -0.425424
weight of 2 is -25.377778
weight of 3 is -4.000000
used!
weight of 0 is -1.492993
weight of 1 is -0.403011
weight of 2 is -25.377778
weight of 3 is -3.000000
used!
deny
deny
deny
deny
weight of 0 is -0.999481
weight of 1 is -0.402992
weight of 2 is -25.377778
weight of 3 is -2.000000
used!
weight of 0 is -0.505968
weight of 1 is -0.402973
weight of 2 is -25.377778
weight of 3 is -1.000000
used!
deny
deny
weight of 0 is -0.012455
weight of 1 is -0.402954
weight of 2 is -25.377778
weight of 3 is 0.000000
used!
weight of 0 is 0.481058
weight of 1 is -0.402936
weight of 2 is -25.377778
weight of 3 is 1.000000
used!
accept
accept
weight of 0 is 0.974571
weight of 1 is -0.262372
weight of 2 is -25.377778
weight of 3 is 2.000000
used!
weight of 0 is 1.468084
weight of 1 is -0.121808
weight of 2 is -25.377778
weight of 3 is 3.000000
used!
accept
accept
weight of 0 is 0.975970
weight of 1 is -0.235680
weight of 2 is -26.622222
weight of 3 is 2.000000
not used!
accept
accept
deny
deny
weight of 0 is 0.482458
weight of 1 is -0.349533
weight of 2 is -26.622222
weight of 3 is 1.000000
not used!
weight of 0 is -0.009663
weight of 1 is -0.463469
weight of 2 is -27.333333
weight of 3 is 0.000000
not used!
weight of 0 is -0.501776
weight of 1 is -0.463480
weight of 2 is -27.511111
weight of 3 is -1.000000
not used!
weight of 0 is -0.993889
weight of 1 is -0.463497
weight of 2 is -27.511111
weight of 3 is -2.000000
not used!
weight of 0 is -1.486011
weight of 1 is -0.463516
weight of 2 is -27.511111
weight of 3 is -3.000000
not used!
deny
deny
deny
deny
deny
deny
weight of 0 is -1.979524
weight of 1 is -0.491697
weight of 2 is -27.511111
weight of 3 is -4.000000
not used!
deny
deny
weight of 0 is -2.472662
weight of 1 is -0.522147
weight of 2 is -27.777778
weight of 3 is -5.000000
not used!
deny
deny
weight of 0 is -2.965990
weight of 1 is -0.534891
weight of 2 is -29.022222
weight of 3 is -6.000000
not used!
deny
deny
deny
deny
weight of 0 is -2.472478
weight of 1 is -0.529499
weight of 2 is -29.022222
weight of 3 is -5.000000
used!
weight of 0 is -1.978965
weight of 1 is -0.524107
weight of 2 is -29.022222
weight of 3 is -4.000000
used!
deny
deny
weight of 0 is -1.485452
weight of 1 is -0.524088
weight of 2 is -29.022222
weight of 3 is -3.000000
used!
weight of 0 is -0.991939
weight of 1 is -0.524069
weight of 2 is -29.022222
weight of 3 is -2.000000
used!
deny
deny
deny
deny
deny
deny
deny
deny
deny
deny
deny
deny
weight of 0 is -0.498427
weight of 1 is -0.496635
weight of 2 is -29.022222
weight of 3 is -1.000000
used!
weight of 0 is -0.004914
weight of 1 is -0.469201
weight of 2 is -29.022222
weight of 3 is 0.000000
used!
accept
accept
weight of 0 is -0.498427
weight of 1 is -0.508849
weight of 2 is -29.022222
weight of 3 is -1.000000
not used!
deny
deny
deny
deny
weight of 0 is -0.992439
weight of 1 is -0.548554
weight of 2 is -29.555556
weight of 3 is -2.000000
not used!
deny
deny
deny
deny
weight of 0 is -1.485768
weight of 1 is -0.604131
weight of 2 is -29.733333
weight of 3 is -3.000000
not used!
weight of 0 is -1.979097
weight of 1 is -0.604150
weight of 2 is -29.911111
weight of 3 is -4.000000
not used!
deny
deny
weight of 0 is -1.485585
weight of 1 is -0.566465
weight of 2 is -29.911111
weight of 3 is -3.000000
used!
weight of 0 is -0.992072
weight of 1 is -0.528780
weight of 2 is -29.911111
weight of 3 is -2.000000
used!
deny
deny
deny
deny
weight of 0 is -0.498559
weight of 1 is -0.528762
weight of 2 is -29.911111
weight of 3 is -1.000000
used!
weight of 0 is -0.005046
weight of 1 is -0.528743
weight of 2 is -29.911111
weight of 3 is 0.000000
used!
accept
accept
weight of 0 is -0.498936
weight of 1 is -0.569805
weight of 2 is -30.800000
weight of 3 is -1.000000
not used!
weight of 0 is -0.992826
weight of 1 is -0.569827
weight of 2 is -31.955556
weight of 3 is -2.000000
not used!
deny
deny
weight of 0 is -1.486486
weight of 1 is -0.569916
weight of 2 is -32.844444
weight of 3 is -3.000000
not used!
weight of 0 is -1.979999
weight of 1 is -0.600532
weight of 2 is -32.844444
weight of 3 is -4.000000
not used!
weight of 0 is -2.473891
weight of 1 is -0.631468
weight of 2 is -33.755556
weight of 3 is -5.000000
not used!
deny
deny
weight of 0 is -2.967929
weight of 1 is -0.674170
weight of 2 is -35.000000
weight of 3 is -6.000000
not used!
deny
deny
weight of 0 is -2.474416
weight of 1 is -0.673907
weight of 2 is -35.000000
weight of 3 is -5.000000
used!
weight of 0 is -1.980903
weight of 1 is -0.673643
weight of 2 is -35.000000
weight of 3 is -4.000000
used!
deny
deny
deny
deny
deny
deny
weight of 0 is -2.474416
weight of 1 is -0.674113
weight of 2 is -35.000000
weight of 3 is -5.000000
not used!
deny
deny
deny
deny
weight of 0 is -1.980903
weight of 1 is -0.674057
weight of 2 is -35.000000
weight of 3 is -4.000000
used!
weight of 0 is -1.487391
weight of 1 is -0.674000
weight of 2 is -35.000000
weight of 3 is -3.000000
used!
deny
deny
deny
deny
weight of 0 is -0.993878
weight of 1 is -0.673831
weight of 2 is -35.000000
weight of 3 is -2.000000
used!
weight of 0 is -0.500365
weight of 1 is -0.673662
weight of 2 is -35.000000
weight of 3 is -1.000000
used!
deny
deny
deny
deny
weight of 0 is -0.006852
weight of 1 is -0.673643
weight of 2 is -35.000000
weight of 3 is 0.000000
used!
weight of 0 is 0.486660
weight of 1 is -0.673625
weight of 2 is -35.000000
weight of 3 is 1.000000
used!
accept
accept
deny
deny
deny
deny
accept
accept
weight of 0 is -0.007352
weight of 1 is -0.714285
weight of 2 is -35.355556
weight of 3 is 0.000000
not used!
deny
deny
deny
deny
weight of 0 is -0.501363
weight of 1 is -0.754870
weight of 2 is -35.711111
weight of 3 is -1.000000
not used!
deny
deny
deny
deny
deny
deny
weight of 0 is -0.994876
weight of 1 is -0.795399
weight of 2 is -35.711111
weight of 3 is -2.000000
not used!
deny
deny
deny
deny
weight of 0 is -1.488618
weight of 1 is -0.814001
weight of 2 is -35.888889
weight of 3 is -3.000000
not used!
deny
deny
weight of 0 is -1.982130
weight of 1 is -0.831025
weight of 2 is -35.888889
weight of 3 is -4.000000
not used!
deny
deny
deny
deny
deny
deny
deny
deny
deny
deny
deny
deny
weight of 0 is -1.488618
weight of 1 is -0.813192
weight of 2 is -35.888889
weight of 3 is -3.000000
used!
weight of 0 is -0.995105
weight of 1 is -0.795359
weight of 2 is -35.888889
weight of 3 is -2.000000
used!
deny
deny
weight of 0 is -0.501592
weight of 1 is -0.795340
weight of 2 is -35.888889
weight of 3 is -1.000000
used!
weight of 0 is -0.008079
weight of 1 is -0.795322
weight of 2 is -35.888889
weight of 3 is 0.000000
used!
accept
accept
deny
deny
accept
accept
weight of 0 is 0.485434
weight of 1 is -0.795303
weight of 2 is -35.888889
weight of 3 is 1.000000
used!
weight of 0 is 0.978947
weight of 1 is -0.795284
weight of 2 is -35.888889
weight of 3 is 2.000000
used!
deny
deny
accept
accept
accept
accept
accept
accept
accept
accept
accept
accept
deny
deny
accept
accept
deny
deny
accept
accept
deny
deny
deny
deny
deny
deny
deny
deny
weight of 0 is 0.485434
weight of 1 is -0.816288
weight of 2 is -35.888889
weight of 3 is 1.000000
not used!
deny
deny
deny
deny
deny
deny
deny
deny
deny
deny
deny
deny
weight of 0 is -0.008079
weight of 1 is -0.816382
weight of 2 is -35.888889
weight of 3 is 0.000000
not used!
deny
deny
deny
deny
weight of 0 is 0.485746
weight of 1 is -0.810325
weight of 2 is -34.555556
weight of 3 is 1.000000
used!
weight of 0 is 0.979570
weight of 1 is -0.804269
weight of 2 is -33.222222
weight of 3 is 2.000000
used!
deny
deny
deny
deny
deny
deny
accept
accept
accept
accept
accept
accept
accept
accept
accept
accept
weight of 0 is 1.473468
weight of 1 is -0.798477
weight of 2 is -32.911111
weight of 3 is 3.000000
used!
weight of 0 is 1.967365
weight of 1 is -0.792685
weight of 2 is -32.600000
weight of 3 is 4.000000
used!
accept
accept
deny
deny
weight of 0 is 2.461232
weight of 1 is -0.780723
weight of 2 is -31.533333
weight of 3 is 5.000000
used!
weight of 0 is 2.955099
weight of 1 is -0.768762
weight of 2 is -30.466667
weight of 3 is 6.000000
used!
accept
accept
accept
accept
accept
accept
deny
deny
accept
accept
accept
accept
accept
accept
accept
accept
accept
accept
weight of 0 is 2.461586
weight of 1 is -0.769664
weight of 2 is -30.466667
weight of 3 is 5.000000
not used!
deny
deny
weight of 0 is 2.955557
weight of 1 is -0.732270
weight of 2 is -29.933333
weight of 3 is 6.000000
used!
weight of 0 is 3.449529
weight of 1 is -0.694876
weight of 2 is -29.400000
weight of 3 is 7.000000
used!
deny
deny
deny
deny
weight of 0 is 3.943549
weight of 1 is -0.694807
weight of 2 is -28.333333
weight of 3 is 8.000000
used!
weight of 0 is 4.437569
weight of 1 is -0.694739
weight of 2 is -27.266667
weight of 3 is 9.000000
used!
deny
deny
weight of 0 is 4.931589
weight of 1 is -0.694722
weight of 2 is -26.377778
weight of 3 is 10.000000
used!
weight of 0 is 5.425610
weight of 1 is -0.694706
weight of 2 is -25.488889
weight of 3 is 11.000000
used!
accept
accept
accept
accept
weight of 0 is 5.919630
weight of 1 is -0.694689
weight of 2 is -24.777778
weight of 3 is 12.000000
used!
weight of 0 is 6.413651
weight of 1 is -0.694673
weight of 2 is -24.066667
weight of 3 is 13.000000
used!
accept
accept
weight of 0 is 5.920138
weight of 1 is -0.702019
weight of 2 is -24.066667
weight of 3 is 12.000000
not used!
deny
deny
accept
accept
accept
accept
accept
accept
weight of 0 is 5.426626
weight of 1 is -0.702038
weight of 2 is -24.066667
weight of 3 is 11.000000
not used!
accept
accept
accept
accept
accept
accept
deny
deny
deny
deny
deny
deny
deny
deny
weight of 0 is 5.920574
weight of 1 is -0.700445
weight of 2 is -23.355556
weight of 3 is 12.000000
used!
weight of 0 is 6.414523
weight of 1 is -0.698853
weight of 2 is -22.644444
weight of 3 is 13.000000
used!
deny
deny
deny
deny
weight of 0 is 6.908470
weight of 1 is -0.698833
weight of 2 is -21.577778
weight of 3 is 14.000000
used!
weight of 0 is 7.402417
weight of 1 is -0.698813
weight of 2 is -20.511111
weight of 3 is 15.000000
used!
accept
accept
weight of 0 is 7.896365
weight of 1 is -0.698791
weight of 2 is -19.533333
weight of 3 is 16.000000
used!
weight of 0 is 8.390314
weight of 1 is -0.698769
weight of 2 is -18.555556
weight of 3 is 17.000000
used!
accept
accept
accept
accept
accept
accept
accept
accept
accept
accept
deny
deny
accept
accept
accept
accept
accept
accept
accept
accept
weight of 0 is 8.884262
weight of 1 is -0.698713
weight of 2 is -17.755556
weight of 3 is 18.000000
used!
weight of 0 is 9.378209
weight of 1 is -0.698658
weight of 2 is -16.955556
weight of 3 is 19.000000
used!
accept
accept
accept
accept
accept
accept
accept
accept
warn: ignoring syscall mprotect(...)
accept
accept
accept
accept
accept
accept
weight of 0 is 8.884696
weight of 1 is -0.702371
weight of 2 is -16.955556
weight of 3 is 18.000000
not used!
accept
accept
weight of 0 is 8.391184
weight of 1 is -0.726952
weight of 2 is -16.955556
weight of 3 is 17.000000
not used!
deny
deny
weight of 0 is 7.897671
weight of 1 is -0.726970
weight of 2 is -16.955556
weight of 3 is 16.000000
not used!
accept
accept
accept
accept
weight of 0 is 7.404158
weight of 1 is -0.731329
weight of 2 is -16.955556
weight of 3 is 15.000000
not used!
accept
accept
accept
accept
accept
accept
weight of 0 is 6.910600
weight of 1 is -0.734786
weight of 2 is -16.955556
weight of 3 is 14.000000
not used!
accept
accept
accept
accept
accept
accept
accept
accept
weight of 0 is 6.417088
weight of 1 is -0.769515
weight of 2 is -16.955556
weight of 3 is 13.000000
not used!
accept
accept
accept
accept
accept
accept
accept
accept
accept
accept
accept
accept
accept
accept
weight of 0 is 5.923575
weight of 1 is -0.769740
weight of 2 is -16.955556
weight of 3 is 12.000000
not used!
accept
accept
accept
accept
weight of 0 is 5.429725
weight of 1 is -0.800720
weight of 2 is -16.955556
weight of 3 is 11.000000
not used!
accept
accept
accept
accept
accept
accept
accept
accept
accept
accept
deny
deny
accept
accept
weight of 0 is 4.936182
weight of 1 is -0.828338
weight of 2 is -16.955556
weight of 3 is 10.000000
not used!
weight of 0 is 4.442669
weight of 1 is -0.856124
weight of 2 is -16.955556
weight of 3 is 9.000000
not used!
accept
accept
accept
accept
weight of 0 is 3.948650
weight of 1 is -0.897364
weight of 2 is -17.088889
weight of 3 is 8.000000
not used!
accept
accept
weight of 0 is 3.455137
weight of 1 is -0.938665
weight of 2 is -17.088889
weight of 3 is 7.000000
not used!
weight of 0 is 2.961427
weight of 1 is -0.979983
weight of 2 is -17.444444
weight of 3 is 6.000000
not used!
accept
accept
weight of 0 is 2.467723
weight of 1 is -0.990189
weight of 2 is -17.444444
weight of 3 is 5.000000
not used!
weight of 0 is 1.974210
weight of 1 is -1.005708
weight of 2 is -17.444444
weight of 3 is 4.000000
not used!
weight of 0 is 1.480698
weight of 1 is -1.027238
weight of 2 is -17.444444
weight of 3 is 3.000000
not used!
deny
deny
deny
deny
accept
accept
accept
accept
deny
deny
deny
deny
deny
deny
accept
accept
deny
deny
deny
deny
deny
deny
deny
deny
weight of 0 is 0.986749
weight of 1 is -1.027263
weight of 2 is -17.800000
weight of 3 is 2.000000
not used!
deny
deny
weight of 0 is 1.480592
weight of 1 is -1.020734
weight of 2 is -17.355556
weight of 3 is 3.000000
used!
weight of 0 is 1.974435
weight of 1 is -1.014206
weight of 2 is -16.911111
weight of 3 is 4.000000
used!
accept
accept
deny
deny
weight of 0 is 1.480714
weight of 1 is -1.014295
weight of 2 is -16.911111
weight of 3 is 3.000000
not used!
accept
accept
weight of 0 is 0.987202
weight of 1 is -1.056021
weight of 2 is -16.911111
weight of 3 is 2.000000
not used!
weight of 0 is 0.493179
weight of 1 is -1.097447
weight of 2 is -16.911111
weight of 3 is 1.000000
not used!
weight of 0 is -0.000821
weight of 1 is -1.137030
weight of 2 is -18.155556
weight of 3 is 0.000000
not used!
weight of 0 is -0.494333
weight of 1 is -1.159781
weight of 2 is -18.155556
weight of 3 is -1.000000
not used!
weight of 0 is -0.988353
weight of 1 is -1.200622
weight of 2 is -19.400000
weight of 3 is -2.000000
not used!
deny
deny
deny
deny
deny
deny
deny
deny
deny
deny
deny
deny
weight of 0 is -0.494400
weight of 1 is -1.161928
weight of 2 is -18.511111
weight of 3 is -1.000000
used!
weight of 0 is -0.000447
weight of 1 is -1.123233
weight of 2 is -17.622222
weight of 3 is 0.000000
used!
deny
deny
weight of 0 is -0.493960
weight of 1 is -2.127939
weight of 2 is -17.622222
weight of 3 is -1.000000
not used!
deny
deny
weight of 0 is -0.000008
weight of 1 is -2.127919
weight of 2 is -16.377778
weight of 3 is 0.000000
used!
weight of 0 is 0.493944
weight of 1 is -2.127899
weight of 2 is -15.133333
weight of 3 is 1.000000
used!
deny
deny
weight of 0 is 0.987897
weight of 1 is -2.127877
weight of 2 is -13.977778
weight of 3 is 2.000000
used!
weight of 0 is 1.481850
weight of 1 is -2.127854
weight of 2 is -12.822222
weight of 3 is 3.000000
used!
accept
accept
weight of 0 is 0.976047
weight of 1 is -3.128186
weight of 2 is -13.000000
weight of 3 is 2.000000
not used!
deny
deny
weight of 0 is 1.469999
weight of 1 is -3.128130
weight of 2 is -12.022222
weight of 3 is 3.000000
used!
weight of 0 is 1.963951
weight of 1 is -3.128075
weight of 2 is -11.044444
weight of 3 is 4.000000
used!
weight of 0 is 1.458148
weight of 1 is -4.087485
weight of 2 is -11.222222
weight of 3 is 3.000000
not used!
warn: ignoring syscall mprotect(...)
weight of 0 is 0.964131
weight of 1 is -5.046860
weight of 2 is -11.222222
weight of 3 is 2.000000
not used!
deny
deny
accept
accept
deny
deny
accept
accept
accept
accept
weight of 0 is 1.481670
weight of 1 is -5.046602
weight of 2 is -10.866667
weight of 3 is 3.000000
used!
weight of 0 is 1.999210
weight of 1 is -5.046343
weight of 2 is -10.511111
weight of 3 is 4.000000
used!
accept
accept
deny
deny
weight of 0 is 1.505697
weight of 1 is -5.105986
weight of 2 is -10.511111
weight of 3 is 3.000000
not used!
deny
deny
deny
deny
deny
deny
weight of 0 is 1.999717
weight of 1 is -3.191604
weight of 2 is -10.155556
weight of 3 is 4.000000
used!
weight of 0 is 2.493738
weight of 1 is -1.277223
weight of 2 is -9.800000
weight of 3 is 5.000000
used!
deny
deny
weight of 0 is 2.987759
weight of 1 is 0.637182
weight of 2 is -9.800000
weight of 3 is 6.000000
used!
weight of 0 is 3.481781
weight of 1 is 2.551587
weight of 2 is -9.800000
weight of 3 is 7.000000
used!
accept
accept
weight of 0 is 3.975801
weight of 1 is 2.551613
weight of 2 is -8.911111
weight of 3 is 8.000000
used!
weight of 0 is 4.469823
weight of 1 is 2.551639
weight of 2 is -8.022222
weight of 3 is 9.000000
used!
weight of 0 is 3.976310
weight of 1 is 2.543561
weight of 2 is -8.022222
weight of 3 is 8.000000
not used!
accept
accept
accept
accept
weight of 0 is 4.493850
weight of 1 is 4.457973
weight of 2 is -8.022222
weight of 3 is 9.000000
used!
weight of 0 is 5.011391
weight of 1 is 6.372385
weight of 2 is -8.022222
weight of 3 is 10.000000
used!
weight of 0 is 4.517878
weight of 1 is 6.372328
weight of 2 is -8.022222
weight of 3 is 9.000000
not used!
accept
accept
accept
accept
accept
accept
weight of 0 is 5.011831
weight of 1 is 6.372353
weight of 2 is -7.488889
weight of 3 is 10.000000
used!
weight of 0 is 5.505784
weight of 1 is 6.372378
weight of 2 is -6.955556
weight of 3 is 11.000000
used!
weight of 0 is 5.013987
weight of 1 is 6.247279
weight of 2 is -7.355556
weight of 3 is 10.000000
not used!
accept
accept
weight of 0 is 4.520474
weight of 1 is 6.105952
weight of 2 is -7.355556
weight of 3 is 9.000000
not used!
accept
accept
accept
accept
weight of 0 is 4.026636
weight of 1 is 6.059057
weight of 2 is -7.444444
weight of 3 is 8.000000
not used!
weight of 0 is 3.532793
weight of 1 is 6.059036
weight of 2 is -7.533333
weight of 3 is 7.000000
not used!
weight of 0 is 3.039280
weight of 1 is 6.039305
weight of 2 is -7.533333
weight of 3 is 6.000000
not used!
accept
accept
accept
accept
accept
accept
accept
accept
accept
accept
accept
accept
deny
deny
accept
accept
accept
accept
accept
accept
accept
accept
accept
accept
accept
accept
accept
accept
accept
accept
accept
accept
accept
accept
accept
accept
deny
deny
accept
accept
weight of 0 is 2.545555
weight of 1 is 6.039218
weight of 2 is -7.533333
weight of 3 is 5.000000
not used!
accept
accept
accept
accept
warn: ignoring syscall mprotect(...)
accept
accept
weight of 0 is 2.028312
weight of 1 is 6.039205
weight of 2 is -7.533333
weight of 3 is 4.000000
not used!
accept
accept
accept
accept
weight of 0 is 1.510773
weight of 1 is 6.039191
weight of 2 is -7.533333
weight of 3 is 3.000000
not used!
weight of 0 is 0.993234
weight of 1 is 6.039172
weight of 2 is -7.533333
weight of 3 is 2.000000
not used!
accept
accept
deny
deny
deny
deny
accept
accept
deny
deny
weight of 0 is 0.499213
weight of 1 is 6.039146
weight of 2 is -7.888889
weight of 3 is 1.000000
not used!
accept
accept
accept
accept
weight of 0 is 1.024685
weight of 1 is 6.039571
weight of 2 is -7.355556
weight of 3 is 2.000000
used!
weight of 0 is 1.550158
weight of 1 is 6.039996
weight of 2 is -6.822222
weight of 3 is 3.000000
used!
accept
accept
weight of 0 is 1.032617
weight of 1 is 4.125596
weight of 2 is -6.822222
weight of 3 is 2.000000
not used!
weight of 0 is 0.515076
weight of 1 is 4.125577
weight of 2 is -6.822222
weight of 3 is 1.000000
not used!
weight of 0 is 0.021057
weight of 1 is 2.211245
weight of 2 is -8.066667
weight of 3 is 0.000000
not used!
deny
deny
deny
deny
weight of 0 is 0.538614
weight of 1 is 2.855489
weight of 2 is -6.822222
weight of 3 is 1.000000
used!
weight of 0 is 1.056170
weight of 1 is 3.499733
weight of 2 is -5.577778
weight of 3 is 2.000000
used!
accept
accept
accept
accept
weight of 0 is 1.573727
weight of 1 is 3.499778
weight of 2 is -4.511111
weight of 3 is 3.000000
used!
weight of 0 is 2.091283
weight of 1 is 3.499822
weight of 2 is -3.444444
weight of 3 is 4.000000
used!
weight of 0 is 1.597770
weight of 1 is 3.458737
weight of 2 is -3.444444
weight of 3 is 3.000000
not used!
weight of 0 is 1.103748
weight of 1 is 3.417539
weight of 2 is -4.688889
weight of 3 is 2.000000
not used!
deny
deny
weight of 0 is 0.597662
weight of 1 is 2.430166
weight of 2 is -5.044444
weight of 3 is 1.000000
not used!
weight of 0 is 0.103687
weight of 1 is 1.441140
weight of 2 is -6.288889
weight of 3 is 0.000000
not used!
accept
accept
weight of 0 is -0.402246
weight of 1 is 0.446718
weight of 2 is -6.977778
weight of 3 is -1.000000
not used!
deny
deny
deny
deny
deny
deny
deny
deny
deny
deny
deny
deny
deny
deny
weight of 0 is 0.091615
weight of 1 is 0.454825
weight of 2 is -6.533333
weight of 3 is 0.000000
used!
weight of 0 is 0.585476
weight of 1 is 0.462932
weight of 2 is -6.088889
weight of 3 is 1.000000
used!
weight of 0 is 0.091613
weight of 1 is -0.523235
weight of 2 is -6.533333
weight of 3 is 0.000000
not used!
deny
deny
deny
deny
deny
deny
weight of 0 is 0.585578
weight of 1 is -0.514867
weight of 2 is -5.511111
weight of 3 is 1.000000
used!
weight of 0 is 1.079543
weight of 1 is -0.506499
weight of 2 is -4.488889
weight of 3 is 2.000000
used!
weight of 0 is 0.585573
weight of 1 is -0.515092
weight of 2 is -5.511111
weight of 3 is 1.000000
not used!
deny
deny
weight of 0 is 0.091719
weight of 1 is -0.524341
weight of 2 is -6.133333
weight of 3 is 0.000000
not used!
weight of 0 is -0.402235
weight of 1 is -0.532245
weight of 2 is -6.311111
weight of 3 is -1.000000
not used!
weight of 0 is -0.896086
weight of 1 is -0.540472
weight of 2 is -6.577778
weight of 3 is -2.000000
not used!
weight of 0 is -1.390032
weight of 1 is -0.548136
weight of 2 is -6.755556
weight of 3 is -3.000000
not used!
weight of 0 is -1.883982
weight of 1 is -0.555918
weight of 2 is -6.777778
weight of 3 is -4.000000
not used!
weight of 0 is -2.377834
weight of 1 is -0.563784
weight of 2 is -7.222222
weight of 3 is -5.000000
not used!
weight of 0 is -2.871782
weight of 1 is -0.571512
weight of 2 is -8.133333
weight of 3 is -6.000000
not used!
weight of 0 is -3.365729
weight of 1 is -0.571580
weight of 2 is -8.155556
weight of 3 is -7.000000
not used!
weight of 0 is -3.859581
weight of 1 is -0.579261
weight of 2 is -8.422222
weight of 3 is -8.000000
not used!
deny
deny
weight of 0 is -4.353636
weight of 1 is -0.582207
weight of 2 is -8.955556
weight of 3 is -9.000000
not used!
weight of 0 is -4.847695
weight of 1 is -0.582438
weight of 2 is -9.933333
weight of 3 is -10.000000
not used!
deny
deny
deny
deny
deny
deny
weight of 0 is -4.330201
weight of 1 is 1.355193
weight of 2 is -9.577778
weight of 3 is -9.000000
used!
weight of 0 is -3.812708
weight of 1 is 3.292823
weight of 2 is -9.222222
weight of 3 is -8.000000
used!
deny
deny
weight of 0 is -4.330197
weight of 1 is 3.292801
weight of 2 is -9.400000
weight of 3 is -9.000000
not used!
deny
deny
deny
deny
weight of 0 is -3.812705
weight of 1 is 3.292821
weight of 2 is -8.688889
weight of 3 is -8.000000
used!
weight of 0 is -3.295212
weight of 1 is 3.292841
weight of 2 is -7.977778
weight of 3 is -7.000000
used!
weight of 0 is -3.812701
weight of 1 is 3.292793
weight of 2 is -8.244444
weight of 3 is -8.000000
not used!
deny
deny
weight of 0 is -3.295207
weight of 1 is 3.292815
weight of 2 is -7.622222
weight of 3 is -7.000000
used!
weight of 0 is -2.777714
weight of 1 is 3.292838
weight of 2 is -7.000000
weight of 3 is -6.000000
used!
deny
deny
deny
deny
deny
deny
weight of 0 is -2.260221
weight of 1 is 3.292862
weight of 2 is -7.000000
weight of 3 is -5.000000
used!
weight of 0 is -1.742727
weight of 1 is 3.292887
weight of 2 is -7.000000
weight of 3 is -4.000000
used!
accept
accept
weight of 0 is -2.260291
weight of 1 is 3.292801
weight of 2 is -7.888889
weight of 3 is -5.000000
not used!
deny
deny
warn: ignoring syscall mprotect(...)
weight of 0 is -2.754007
weight of 1 is 1.374981
weight of 2 is -9.133333
weight of 3 is -6.000000
not used!
deny
deny
deny
deny
deny
deny
weight of 0 is -2.214363
weight of 1 is 5.114921
weight of 2 is -8.422222
weight of 3 is -5.000000
used!
weight of 0 is -1.674718
weight of 1 is 8.854860
weight of 2 is -7.711111
weight of 3 is -4.000000
used!
deny
deny
weight of 0 is -1.135074
weight of 1 is 8.854869
weight of 2 is -7.711111
weight of 3 is -3.000000
used!
weight of 0 is -0.595429
weight of 1 is 8.854879
weight of 2 is -7.711111
weight of 3 is -2.000000
used!
deny
deny
weight of 0 is -0.055784
weight of 1 is 8.854898
weight of 2 is -7.711111
weight of 3 is -1.000000
used!
weight of 0 is 0.483860
weight of 1 is 8.854916
weight of 2 is -7.711111
weight of 3 is 0.000000
used!
accept
accept
weight of 0 is 1.023505
weight of 1 is 8.854935
weight of 2 is -7.711111
weight of 3 is 1.000000
used!
weight of 0 is 1.563150
weight of 1 is 8.854954
weight of 2 is -7.711111
weight of 3 is 2.000000
used!
accept
accept
accept
accept
weight of 0 is 1.037972
weight of 1 is 8.854898
weight of 2 is -7.711111
weight of 3 is 1.000000
not used!
accept
accept
accept
accept
accept
accept
weight of 0 is 0.520415
weight of 1 is 8.854837
weight of 2 is -7.888889
weight of 3 is 0.000000
not used!
accept
accept
weight of 0 is -0.005057
weight of 1 is 8.210595
weight of 2 is -8.066667
weight of 3 is -1.000000
not used!
deny
deny
weight of 0 is -0.530529
weight of 1 is 8.210576
weight of 2 is -8.244444
weight of 3 is -2.000000
not used!
deny
deny
deny
deny
weight of 0 is 0.009121
weight of 1 is 8.210632
weight of 2 is -8.244444
weight of 3 is -1.000000
used!
weight of 0 is 0.548772
weight of 1 is 8.210689
weight of 2 is -8.244444
weight of 3 is 0.000000
used!
accept
accept
weight of 0 is 1.088422
weight of 1 is 8.210708
weight of 2 is -8.244444
weight of 3 is 1.000000
used!
weight of 0 is 1.628073
weight of 1 is 8.210726
weight of 2 is -8.244444
weight of 3 is 2.000000
used!
accept
accept
weight of 0 is 2.167723
weight of 1 is 8.210745
weight of 2 is -8.244444
weight of 3 is 3.000000
used!
weight of 0 is 2.707374
weight of 1 is 8.210764
weight of 2 is -8.244444
weight of 3 is 4.000000
used!
weight of 0 is 2.181901
weight of 1 is 7.566426
weight of 2 is -8.422222
weight of 3 is 3.000000
not used!
weight of 0 is 1.664344
weight of 1 is 6.922095
weight of 2 is -8.422222
weight of 3 is 2.000000
not used!
accept
accept
accept
accept
accept
accept
accept
accept
accept
accept
accept
accept
accept
accept
accept
accept
accept
accept
accept
accept
accept
accept
accept
accept
accept
accept
weight of 0 is 1.147032
weight of 1 is 6.919911
weight of 2 is -8.444444
weight of 3 is 1.000000
not used!
deny
deny
deny
deny
accept
accept
deny
deny
deny
deny
accept
accept
accept
accept
accept
accept
accept
accept
accept
accept
accept
accept
accept
accept
accept
accept
accept
accept
accept
accept
deny
deny
accept
accept
accept
accept
accept
accept
accept
accept
accept
accept
accept
accept
weight of 0 is 0.653032
weight of 1 is 5.001567
weight of 2 is -8.622222
weight of 3 is 0.000000
not used!
accept
accept
accept
accept
accept
accept
accept
accept
deny
deny
accept
accept
deny
deny
deny
deny
deny
deny
deny
deny
accept
accept
accept
accept
accept
accept
accept
accept
accept
accept
weight of 0 is 0.113382
weight of 1 is 5.001549
weight of 2 is -8.622222
weight of 3 is -1.000000
not used!
weight of 0 is -0.426326
weight of 1 is 5.001526
weight of 2 is -8.888889
weight of 3 is -2.000000
not used!
deny
deny
deny
deny
weight of 0 is -0.943887
weight of 1 is 3.181847
weight of 2 is -8.888889
weight of 3 is -3.000000
not used!
deny
deny
deny
deny
weight of 0 is -1.461448
weight of 1 is 3.181786
weight of 2 is -9.244444
weight of 3 is -4.000000
not used!
deny
deny
deny
deny
deny
deny
weight of 0 is -0.935761
weight of 1 is 5.800747
weight of 2 is -8.177778
weight of 3 is -3.000000
used!
weight of 0 is -0.410074
weight of 1 is 8.419708
weight of 2 is -7.111111
weight of 3 is -2.000000
used!
deny
deny
weight of 0 is 0.115613
weight of 1 is 8.419712
weight of 2 is -7.111111
weight of 3 is -1.000000
used!
weight of 0 is 0.641301
weight of 1 is 8.419717
weight of 2 is -7.111111
weight of 3 is 0.000000
used!
accept
accept
weight of 0 is 1.166988
weight of 1 is 8.419739
weight of 2 is -6.844444
weight of 3 is 1.000000
used!
weight of 0 is 1.692676
weight of 1 is 8.419762
weight of 2 is -6.577778
weight of 3 is 2.000000
used!
weight of 0 is 1.152759
weight of 1 is 6.600124
weight of 2 is -6.577778
weight of 3 is 1.000000
not used!
weight of 0 is 0.612842
weight of 1 is 6.600105
weight of 2 is -6.577778
weight of 3 is 0.000000
not used!
deny
deny
accept
accept
accept
accept
weight of 0 is 0.087419
weight of 1 is 5.425823
weight of 2 is -7.822222
weight of 3 is -1.000000
not used!
weight of 0 is -0.438004
weight of 1 is 5.425821
weight of 2 is -7.822222
weight of 3 is -2.000000
not used!
deny
deny
deny
deny
deny
deny
weight of 0 is 0.057115
weight of 1 is 5.686189
weight of 2 is -7.644444
weight of 3 is -1.000000
used!
weight of 0 is 0.552233
weight of 1 is 5.946556
weight of 2 is -7.466667
weight of 3 is 0.000000
used!
deny
deny
weight of 0 is 1.047352
weight of 1 is 5.946573
weight of 2 is -7.466667
weight of 3 is 1.000000
used!
weight of 0 is 1.542470
weight of 1 is 5.946589
weight of 2 is -7.466667
weight of 3 is 2.000000
used!
accept
accept
weight of 0 is 2.037589
weight of 1 is 5.946610
weight of 2 is -7.288889
weight of 3 is 3.000000
used!
weight of 0 is 2.532708
weight of 1 is 5.946632
weight of 2 is -7.111111
weight of 3 is 4.000000
used!
deny
deny
accept
accept
accept
accept
accept
accept
accept
accept
accept
accept
accept
accept
accept
accept
weight of 0 is 2.039195
weight of 1 is 5.946218
weight of 2 is -7.111111
weight of 3 is 3.000000
not used!
accept
accept
accept
accept
accept
accept
accept
accept
accept
accept
accept
accept
accept
accept
accept
accept
accept
accept
accept
accept
accept
accept
accept
accept
accept
accept
deny
deny
accept
accept
accept
accept
accept
accept
accept
accept
accept
accept
accept
accept
accept
accept
weight of 0 is 1.545682
weight of 1 is 3.996794
weight of 2 is -7.111111
weight of 3 is 2.000000
not used!
deny
deny
accept
accept
weight of 0 is 1.052169
weight of 1 is 3.996174
weight of 2 is -7.111111
weight of 3 is 1.000000
not used!
accept
accept
deny
deny
accept
accept
accept
accept
weight of 0 is 0.558657
weight of 1 is 3.995591
weight of 2 is -7.111111
weight of 3 is 0.000000
not used!
accept
accept
accept
accept
deny
deny
weight of 0 is 0.065144
weight of 1 is 3.995554
weight of 2 is -7.111111
weight of 3 is -1.000000
not used!
weight of 0 is -0.428369
weight of 1 is 3.995272
weight of 2 is -7.111111
weight of 3 is -2.000000
not used!
deny
deny
deny
deny
weight of 0 is -0.921881
weight of 1 is 3.989110
weight of 2 is -7.111111
weight of 3 is -3.000000
not used!
weight of 0 is -1.415819
weight of 1 is 3.989107
weight of 2 is -7.111111
weight of 3 is -4.000000
not used!
deny
deny
deny
deny
deny
deny
deny
deny
weight of 0 is -0.875951
weight of 1 is 3.989235
weight of 2 is -7.111111
weight of 3 is -3.000000
used!
weight of 0 is -0.336083
weight of 1 is 3.989363
weight of 2 is -7.111111
weight of 3 is -2.000000
used!
deny
deny
weight of 0 is 0.203786
weight of 1 is 3.989384
weight of 2 is -6.933333
weight of 3 is -1.000000
used!
weight of 0 is 0.743654
weight of 1 is 3.989406
weight of 2 is -6.755556
weight of 3 is 0.000000
used!
deny
deny
weight of 0 is 1.283522
weight of 1 is 3.989422
weight of 2 is -6.755556
weight of 3 is 1.000000
used!
weight of 0 is 1.823391
weight of 1 is 3.989438
weight of 2 is -6.755556
weight of 3 is 2.000000
used!
accept
accept
weight of 0 is 2.363259
weight of 1 is 3.989457
weight of 2 is -6.755556
weight of 3 is 3.000000
used!
weight of 0 is 2.903128
weight of 1 is 3.989476
weight of 2 is -6.755556
weight of 3 is 4.000000
used!
accept
accept
weight of 0 is 3.442998
weight of 1 is 3.989696
weight of 2 is -5.600000
weight of 3 is 5.000000
used!
weight of 0 is 3.982868
weight of 1 is 3.989915
weight of 2 is -4.444444
weight of 3 is 6.000000
used!
accept
accept
weight of 0 is 3.489355
weight of 1 is 3.989201
weight of 2 is -4.444444
weight of 3 is 5.000000
not used!
weight of 0 is 2.995842
weight of 1 is 3.975787
weight of 2 is -4.444444
weight of 3 is 4.000000
not used!
accept
accept
accept
accept
accept
accept
accept
accept
accept
accept
accept
accept
accept
accept
weight of 0 is 2.502329
weight of 1 is 3.846730
weight of 2 is -4.444444
weight of 3 is 3.000000
not used!
accept
accept
accept
accept
accept
accept
accept
accept
accept
accept
accept
accept
accept
accept
accept
accept
accept
accept
accept
accept
accept
accept
accept
accept
accept
accept
accept
accept
accept
accept
accept
accept
weight of 0 is 2.010414
weight of 1 is 1.098007
weight of 2 is -5.000000
weight of 3 is 2.000000
not used!
accept
accept
accept
accept
weight of 0 is 1.516901
weight of 1 is 0.969772
weight of 2 is -5.000000
weight of 3 is 1.000000
not used!
accept
accept
accept
accept
weight of 0 is 1.021947
weight of 1 is 0.967277
weight of 2 is -5.311111
weight of 3 is 0.000000
not used!
accept
accept
weight of 0 is 0.526992
weight of 1 is 0.967237
weight of 2 is -5.466667
weight of 3 is -1.000000
not used!
weight of 0 is 0.035196
weight of 1 is 0.710169
weight of 2 is -5.466667
weight of 3 is -2.000000
not used!
deny
deny
deny
deny
deny
deny
deny
deny
weight of 0 is 0.528709
weight of 1 is 0.710225
weight of 2 is -5.466667
weight of 3 is -1.000000
used!
weight of 0 is 1.022222
weight of 1 is 0.710282
weight of 2 is -5.466667
weight of 3 is 0.000000
used!
weight of 0 is 0.528709
weight of 1 is -1.234724
weight of 2 is -5.466667
weight of 3 is -1.000000
not used!
deny
deny
weight of 0 is 1.022222
weight of 1 is -1.234706
weight of 2 is -5.466667
weight of 3 is 0.000000
used!
weight of 0 is 1.515735
weight of 1 is -1.234687
weight of 2 is -5.466667
weight of 3 is 1.000000
used!
accept
accept
weight of 0 is 2.009247
weight of 1 is -1.234649
weight of 2 is -5.466667
weight of 3 is 2.000000
used!
weight of 0 is 2.502760
weight of 1 is -1.234612
weight of 2 is -5.466667
weight of 3 is 3.000000
used!
weight of 0 is 1.985352
weight of 1 is -3.179590
weight of 2 is -5.911111
weight of 3 is 2.000000
not used!
weight of 0 is 1.490268
weight of 1 is -3.182338
weight of 2 is -6.177778
weight of 3 is 1.000000
not used!
deny
deny
deny
deny
accept
accept
weight of 0 is 0.996994
weight of 1 is -3.329991
weight of 2 is -6.177778
weight of 3 is 0.000000
not used!
deny
deny
weight of 0 is 1.522759
weight of 1 is -2.188340
weight of 2 is -5.822222
weight of 3 is 1.000000
used!
weight of 0 is 2.048524
weight of 1 is -1.046688
weight of 2 is -5.466667
weight of 3 is 2.000000
used!
accept
accept
accept
accept
weight of 0 is 2.574289
weight of 1 is -1.046667
weight of 2 is -5.288889
weight of 3 is 3.000000
used!
weight of 0 is 3.100054
weight of 1 is -1.046646
weight of 2 is -5.111111
weight of 3 is 4.000000
used!
accept
accept
accept
accept
accept
accept
accept
accept
accept
accept
weight of 0 is 2.604936
weight of 1 is -2.863998
weight of 2 is -5.200000
weight of 3 is 3.000000
not used!
accept
accept
weight of 0 is 2.109981
weight of 1 is -2.866611
weight of 2 is -5.200000
weight of 3 is 2.000000
not used!
accept
accept
accept
accept
accept
accept
accept
accept
accept
accept
weight of 0 is 1.592569
weight of 1 is -4.681484
weight of 2 is -5.822222
weight of 3 is 1.000000
not used!
accept
accept
deny
deny
deny
deny
accept
accept
deny
deny
deny
deny
accept
accept
deny
deny
weight of 0 is 2.132360
weight of 1 is -3.540140
weight of 2 is -5.822222
weight of 3 is 2.000000
used!
weight of 0 is 2.672151
weight of 1 is -2.398796
weight of 2 is -5.822222
weight of 3 is 3.000000
used!
accept
accept
weight of 0 is 3.197922
weight of 1 is -1.257525
weight of 2 is -5.822222
weight of 3 is 4.000000
used!
weight of 0 is 3.723692
weight of 1 is -0.116254
weight of 2 is -5.822222
weight of 3 is 5.000000
used!
accept
accept
weight of 0 is 4.263484
weight of 1 is 1.025073
weight of 2 is -5.822222
weight of 3 is 6.000000
used!
weight of 0 is 4.803275
weight of 1 is 2.166400
weight of 2 is -5.822222
weight of 3 is 7.000000
used!
accept
accept
weight of 0 is 4.285865
weight of 1 is 2.166344
weight of 2 is -5.822222
weight of 3 is 6.000000
not used!
weight of 0 is 3.779801
weight of 1 is 1.242543
weight of 2 is -6.400000
weight of 3 is 5.000000
not used!
accept
accept
accept
accept
weight of 0 is 3.273734
weight of 1 is 1.242194
weight of 2 is -6.400000
weight of 3 is 4.000000
not used!
accept
accept
accept
accept
accept
accept
accept
accept
accept
accept
accept
accept
accept
accept
accept
accept
accept
accept
weight of 0 is 2.780221
weight of 1 is -1.374713
weight of 2 is -6.400000
weight of 3 is 3.000000
not used!
accept
accept
accept
accept
accept
accept
accept
accept
accept
accept
weight of 0 is 2.262774
weight of 1 is -3.199780
weight of 2 is -6.577778
weight of 3 is 2.000000
not used!
weight of 0 is 1.722909
weight of 1 is -5.024828
weight of 2 is -7.822222
weight of 3 is 1.000000
not used!
deny
deny
accept
accept
weight of 0 is 1.205464
weight of 1 is -6.849896
weight of 2 is -7.911111
weight of 3 is 0.000000
not used!
deny
deny
weight of 0 is 1.731240
weight of 1 is -5.708926
weight of 2 is -7.911111
weight of 3 is 1.000000
used!
weight of 0 is 2.257017
weight of 1 is -4.567955
weight of 2 is -7.911111
weight of 3 is 2.000000
used!
accept
accept
accept
accept
weight of 0 is 2.782794
weight of 1 is -4.567934
weight of 2 is -7.555556
weight of 3 is 3.000000
used!
weight of 0 is 3.308572
weight of 1 is -4.567913
weight of 2 is -7.200000
weight of 3 is 4.000000
used!
accept
accept
deny
deny
accept
accept
weight of 0 is 3.834350
weight of 1 is -3.426985
weight of 2 is -6.844444
weight of 3 is 5.000000
used!
weight of 0 is 4.360128
weight of 1 is -2.286057
weight of 2 is -6.488889
weight of 3 is 6.000000
used!
accept
accept
accept
accept
weight of 0 is 3.820259
weight of 1 is -2.286073
weight of 2 is -6.488889
weight of 3 is 5.000000
not used!
accept
accept
accept
accept
accept
accept
accept
accept
accept
accept
accept
accept
accept
accept
accept
accept
accept
accept
accept
accept
weight of 0 is 3.326746
weight of 1 is -2.286130
weight of 2 is -6.488889
weight of 3 is 4.000000
not used!
weight of 0 is 2.832704
weight of 1 is -2.329136
weight of 2 is -6.666667
weight of 3 is 3.000000
not used!
accept
accept
accept
accept
accept
accept
accept
accept
weight of 0 is 2.339192
weight of 1 is -2.329192
weight of 2 is -6.666667
weight of 3 is 2.000000
not used!
accept
accept
accept
accept
deny
deny
accept
accept
accept
accept
weight of 0 is 2.864975
weight of 1 is -1.188546
weight of 2 is -6.311111
weight of 3 is 3.000000
used!
weight of 0 is 3.390759
weight of 1 is -0.047900
weight of 2 is -5.955556
weight of 3 is 4.000000
used!
accept
accept
accept
accept
accept
accept
accept
accept
accept
accept
accept
accept
accept
accept
accept
accept
accept
accept
accept
accept
accept
accept
accept
accept
accept
accept
accept
accept
accept
accept
weight of 0 is 2.850881
weight of 1 is -0.047956
weight of 2 is -5.955556
weight of 3 is 3.000000
not used!
accept
accept
accept
accept
weight of 0 is 2.311002
weight of 1 is -0.047994
weight of 2 is -5.955556
weight of 3 is 2.000000
not used!
accept
accept
weight of 0 is 1.817490
weight of 1 is -3.839399
weight of 2 is -5.955556
weight of 3 is 1.000000
not used!
deny
deny
accept
accept
deny
deny
weight of 0 is 2.343279
weight of 1 is -2.699011
weight of 2 is -5.955556
weight of 3 is 2.000000
used!
weight of 0 is 2.869068
weight of 1 is -1.558623
weight of 2 is -5.955556
weight of 3 is 3.000000
used!
accept
accept
accept
accept
weight of 0 is 2.375555
weight of 1 is -1.559130
weight of 2 is -5.955556
weight of 3 is 2.000000
not used!
accept
accept
accept
accept
accept
accept
accept
accept
accept
accept
accept
accept
accept
accept
accept
accept
weight of 0 is 1.882042
weight of 1 is -1.567058
weight of 2 is -5.955556
weight of 3 is 1.000000
not used!
accept
accept
deny
deny
accept
accept
accept
accept
weight of 0 is 2.407835
weight of 1 is -1.567037
weight of 2 is -5.600000
weight of 3 is 2.000000
used!
weight of 0 is 2.933629
weight of 1 is -1.567016
weight of 2 is -5.244444
weight of 3 is 3.000000
used!
accept
accept
accept
accept
accept
accept
accept
accept
accept
accept
accept
accept
accept
accept
weight of 0 is 2.440116
weight of 1 is -1.567955
weight of 2 is -5.244444
weight of 3 is 2.000000
not used!
accept
accept
accept
accept
accept
accept
accept
accept
accept
accept
accept
accept
accept
accept
accept
accept
accept
accept
accept
accept
accept
accept
accept
accept
accept
accept
accept
accept
weight of 0 is 1.914351
weight of 1 is -1.567969
weight of 2 is -5.244444
weight of 3 is 1.000000
not used!
accept
accept
accept
accept
weight of 0 is 1.388586
weight of 1 is -1.567991
weight of 2 is -5.600000
weight of 3 is 0.000000
not used!
weight of 0 is 0.862820
weight of 1 is -1.568005
weight of 2 is -5.600000
weight of 3 is -1.000000
not used!
deny
deny
deny
deny
deny
deny
weight of 0 is 1.388621
weight of 1 is -0.428086
weight of 2 is -5.422222
weight of 3 is 0.000000
used!
weight of 0 is 1.914421
weight of 1 is 0.711832
weight of 2 is -5.244444
weight of 3 is 1.000000
used!
accept
accept
weight of 0 is 1.388655
weight of 1 is -0.429681
weight of 2 is -5.422222
weight of 3 is 0.000000
not used!
accept
accept
weight of 0 is 1.914456
weight of 1 is -0.429660
weight of 2 is -5.066667
weight of 3 is 1.000000
used!
weight of 0 is 2.440256
weight of 1 is -0.429639
weight of 2 is -4.711111
weight of 3 is 2.000000
used!
weight of 0 is 1.914490
weight of 1 is -0.429660
weight of 2 is -5.066667
weight of 3 is 1.000000
not used!
accept
accept
weight of 0 is 2.440291
weight of 1 is -0.429646
weight of 2 is -5.066667
weight of 3 is 2.000000
used!
weight of 0 is 2.966092
weight of 1 is -0.429632
weight of 2 is -5.066667
weight of 3 is 3.000000
used!
weight of 0 is 2.440325
weight of 1 is -0.429646
weight of 2 is -5.066667
weight of 3 is 2.000000
not used!
accept
accept
accept
accept
accept
accept
accept
accept
weight of 0 is 1.914557
weight of 1 is -0.429702
weight of 2 is -5.244444
weight of 3 is 1.000000
not used!
accept
accept
weight of 0 is 1.388789
weight of 1 is -0.429723
weight of 2 is -5.600000
weight of 3 is 0.000000
not used!
deny
deny
weight of 0 is 0.863020
weight of 1 is -0.429737
weight of 2 is -5.600000
weight of 3 is -1.000000
not used!
deny
deny
deny
deny
weight of 0 is 1.388823
weight of 1 is -0.429716
weight of 2 is -5.244444
weight of 3 is 0.000000
used!
weight of 0 is 1.914626
weight of 1 is -0.429695
weight of 2 is -4.888889
weight of 3 is 1.000000
used!
weight of 0 is 1.388858
weight of 1 is -0.429716
weight of 2 is -5.066667
weight of 3 is 0.000000
not used!
accept
accept
weight of 0 is 0.863088
weight of 1 is -0.429737
weight of 2 is -5.422222
weight of 3 is -1.000000
not used!
deny
deny
weight of 0 is 1.388891
weight of 1 is -0.429723
weight of 2 is -5.422222
weight of 3 is 0.000000
used!
weight of 0 is 1.914695
weight of 1 is -0.429709
weight of 2 is -5.422222
weight of 3 is 1.000000
used!
accept
accept
weight of 0 is 2.440498
weight of 1 is -0.429688
weight of 2 is -5.244444
weight of 3 is 2.000000
used!
weight of 0 is 2.966301
weight of 1 is -0.429667
weight of 2 is -5.066667
weight of 3 is 3.000000
used!
accept
accept
weight of 0 is 3.492105
weight of 1 is 0.710115
weight of 2 is -4.711111
weight of 3 is 4.000000
used!
weight of 0 is 4.017908
weight of 1 is 1.849897
weight of 2 is -4.355556
weight of 3 is 5.000000
used!
weight of 0 is 3.492139
weight of 1 is 1.849862
weight of 2 is -4.533333
weight of 3 is 4.000000
not used!
accept
accept
accept
accept
accept
accept
accept
accept
weight of 0 is 2.966368
weight of 1 is 1.849841
weight of 2 is -4.711111
weight of 3 is 3.000000
not used!
accept
accept
accept
accept
accept
accept
accept
accept
accept
accept
accept
accept
weight of 0 is 2.440596
weight of 1 is 1.849784
weight of 2 is -5.066667
weight of 3 is 2.000000
not used!
accept
accept
accept
accept
weight of 0 is 1.914824
weight of 1 is 1.849770
weight of 2 is -5.066667
weight of 3 is 1.000000
not used!
weight of 0 is 1.389051
weight of 1 is 1.849749
weight of 2 is -5.244444
weight of 3 is 0.000000
not used!
accept
accept
weight of 0 is 0.863277
weight of 1 is 1.849693
weight of 2 is -5.600000
weight of 3 is -1.000000
not used!
deny
deny
deny
deny
weight of 0 is 0.337503
weight of 1 is 1.849679
weight of 2 is -5.600000
weight of 3 is -2.000000
not used!
deny
deny
weight of 0 is 0.863312
weight of 1 is 1.849700
weight of 2 is -5.244444
weight of 3 is -1.000000
used!
weight of 0 is 1.389120
weight of 1 is 1.849721
weight of 2 is -4.888889
weight of 3 is 0.000000
used!
weight of 0 is 0.863346
weight of 1 is 1.849700
weight of 2 is -5.066667
weight of 3 is -1.000000
not used!
deny
deny
weight of 0 is 1.389155
weight of 1 is 1.849714
weight of 2 is -5.066667
weight of 3 is 0.000000
used!
weight of 0 is 1.914963
weight of 1 is 1.849728
weight of 2 is -5.066667
weight of 3 is 1.000000
used!
weight of 0 is 1.389189
weight of 1 is 0.708631
weight of 2 is -5.422222
weight of 3 is 0.000000
not used!
accept
accept
weight of 0 is 1.914998
weight of 1 is 0.708652
weight of 2 is -5.244444
weight of 3 is 1.000000
used!
weight of 0 is 2.440807
weight of 1 is 0.708673
weight of 2 is -5.066667
weight of 3 is 2.000000
used!
accept
accept
accept
accept
weight of 0 is 1.915031
weight of 1 is 0.708617
weight of 2 is -5.066667
weight of 3 is 1.000000
not used!
accept
accept
accept
accept
weight of 0 is 1.389256
weight of 1 is 0.708596
weight of 2 is -5.244444
weight of 3 is 0.000000
not used!
deny
deny
weight of 0 is 0.863480
weight of 1 is 0.708575
weight of 2 is -5.600000
weight of 3 is -1.000000
not used!
deny
deny
weight of 0 is 1.389291
weight of 1 is 0.708596
weight of 2 is -5.244444
weight of 3 is 0.000000
used!
weight of 0 is 1.915101
weight of 1 is 0.708617
weight of 2 is -4.888889
weight of 3 is 1.000000
used!
accept
accept
accept
accept
weight of 0 is 2.440912
weight of 1 is 0.708652
weight of 2 is -4.711111
weight of 3 is 2.000000
used!
weight of 0 is 2.966723
weight of 1 is 0.708687
weight of 2 is -4.533333
weight of 3 is 3.000000
used!
accept
accept
weight of 0 is 2.440946
weight of 1 is 0.708666
weight of 2 is -4.711111
weight of 3 is 2.000000
not used!
accept
accept
accept
accept
accept
accept
accept
accept
weight of 0 is 1.915169
weight of 1 is 0.708652
weight of 2 is -4.711111
weight of 3 is 1.000000
not used!
accept
accept
weight of 0 is 1.389391
weight of 1 is 0.708631
weight of 2 is -4.888889
weight of 3 is 0.000000
not used!
deny
deny
accept
accept
accept
accept
accept
accept
weight of 0 is 0.863613
weight of 1 is 0.708596
weight of 2 is -5.066667
weight of 3 is -1.000000
not used!
deny
deny
deny
deny
weight of 0 is 0.337834
weight of 1 is 0.708575
weight of 2 is -5.422222
weight of 3 is -2.000000
not used!
deny
deny
deny
deny
deny
deny
weight of 0 is 0.863649
weight of 1 is 1.847861
weight of 2 is -5.066667
weight of 3 is -1.000000
used!
weight of 0 is 1.389464
weight of 1 is 2.987148
weight of 2 is -4.711111
weight of 3 is 0.000000
used!
weight of 0 is 0.863685
weight of 1 is 2.987134
weight of 2 is -4.711111
weight of 3 is -1.000000
not used!
deny
deny
weight of 0 is 1.389500
weight of 1 is 2.987148
weight of 2 is -4.711111
weight of 3 is 0.000000
used!
weight of 0 is 1.915315
weight of 1 is 2.987162
weight of 2 is -4.711111
weight of 3 is 1.000000
used!
accept
accept
weight of 0 is 2.441130
weight of 1 is 4.126420
weight of 2 is -4.533333
weight of 3 is 2.000000
used!
weight of 0 is 2.966945
weight of 1 is 5.265678
weight of 2 is -4.355556
weight of 3 is 3.000000
used!
weight of 0 is 2.441166
weight of 1 is 5.265657
weight of 2 is -4.533333
weight of 3 is 2.000000
not used!
accept
accept
weight of 0 is 2.980977
weight of 1 is 6.404965
weight of 2 is -3.644444
weight of 3 is 3.000000
used!
weight of 0 is 3.520788
weight of 1 is 7.544273
weight of 2 is -2.755556
weight of 3 is 4.000000
used!
weight of 0 is 2.995009
weight of 1 is 7.544251
weight of 2 is -3.111111
weight of 3 is 3.000000
not used!
accept
accept
weight of 0 is 3.520824
weight of 1 is 7.544273
weight of 2 is -2.755556
weight of 3 is 4.000000
used!
weight of 0 is 4.046640
weight of 1 is 7.544294
weight of 2 is -2.400000
weight of 3 is 5.000000
used!
accept
accept
accept
accept
accept
accept
weight of 0 is 3.520860
weight of 1 is 7.544237
weight of 2 is -2.400000
weight of 3 is 4.000000
not used!
accept
accept
accept
accept
weight of 0 is 2.995079
weight of 1 is 7.544216
weight of 2 is -2.577778
weight of 3 is 3.000000
not used!
accept
accept
weight of 0 is 2.469299
weight of 1 is 7.544195
weight of 2 is -2.933333
weight of 3 is 2.000000
not used!
weight of 0 is 1.943518
weight of 1 is 7.544181
weight of 2 is -2.933333
weight of 3 is 1.000000
not used!
accept
accept
accept
accept
weight of 0 is 1.417736
weight of 1 is 6.403457
weight of 2 is -3.111111
weight of 3 is 0.000000
not used!
accept
accept
weight of 0 is 0.891954
weight of 1 is 6.403436
weight of 2 is -3.466667
weight of 3 is -1.000000
not used!
accept
accept
weight of 0 is 0.366172
weight of 1 is 6.403422
weight of 2 is -3.466667
weight of 3 is -2.000000
not used!
weight of 0 is -0.159610
weight of 1 is 6.403401
weight of 2 is -3.644444
weight of 3 is -3.000000
not used!
deny
deny
accept
accept
accept
accept
weight of 0 is 0.366209
weight of 1 is 6.403415
weight of 2 is -3.644444
weight of 3 is -2.000000
used!
weight of 0 is 0.892028
weight of 1 is 6.403429
weight of 2 is -3.644444
weight of 3 is -1.000000
used!
deny
deny
deny
deny
weight of 0 is 0.366244
weight of 1 is 6.403415
weight of 2 is -3.644444
weight of 3 is -2.000000
not used!
accept
accept
accept
accept
weight of 0 is 0.892064
weight of 1 is 6.403429
weight of 2 is -3.644444
weight of 3 is -1.000000
used!
weight of 0 is 1.417883
weight of 1 is 6.403443
weight of 2 is -3.644444
weight of 3 is 0.000000
used!
weight of 0 is 0.892100
weight of 1 is 6.403422
weight of 2 is -3.822222
weight of 3 is -1.000000
not used!
weight of 0 is 0.366316
weight of 1 is 6.403401
weight of 2 is -4.177778
weight of 3 is -2.000000
not used!
deny
deny
deny
deny
weight of 0 is -0.159469
weight of 1 is 5.262825
weight of 2 is -4.177778
weight of 3 is -3.000000
not used!
deny
deny
weight of 0 is 0.366351
weight of 1 is 5.262881
weight of 2 is -3.822222
weight of 3 is -2.000000
used!
weight of 0 is 0.892172
weight of 1 is 5.262938
weight of 2 is -3.466667
weight of 3 is -1.000000
used!
weight of 0 is 0.366387
weight of 1 is 5.262917
weight of 2 is -3.644444
weight of 3 is -2.000000
not used!
accept
accept
accept
accept
weight of 0 is 0.892208
weight of 1 is 5.262931
weight of 2 is -3.644444
weight of 3 is -1.000000
used!
weight of 0 is 1.418029
weight of 1 is 5.262945
weight of 2 is -3.644444
weight of 3 is 0.000000
used!
weight of 0 is 0.892244
weight of 1 is 5.262924
weight of 2 is -4.000000
weight of 3 is -1.000000
not used!
deny
deny
weight of 0 is 1.418065
weight of 1 is 5.262945
weight of 2 is -3.822222
weight of 3 is 0.000000
used!
weight of 0 is 1.943886
weight of 1 is 5.262966
weight of 2 is -3.644444
weight of 3 is 1.000000
used!
weight of 0 is 1.418101
weight of 1 is 5.262952
weight of 2 is -3.644444
weight of 3 is 0.000000
not used!
accept
accept
weight of 0 is 0.878303
weight of 1 is 4.122397
weight of 2 is -3.644444
weight of 3 is -1.000000
not used!
deny
deny
weight of 0 is 1.404124
weight of 1 is 4.122411
weight of 2 is -3.644444
weight of 3 is 0.000000
used!
weight of 0 is 1.929946
weight of 1 is 4.122425
weight of 2 is -3.644444
weight of 3 is 1.000000
used!
accept
accept
weight of 0 is 1.404159
weight of 1 is 2.981927
weight of 2 is -3.822222
weight of 3 is 0.000000
not used!
accept
accept
weight of 0 is 1.929982
weight of 1 is 2.981948
weight of 2 is -3.466667
weight of 3 is 1.000000
used!
weight of 0 is 2.455804
weight of 1 is 2.981969
weight of 2 is -3.111111
weight of 3 is 2.000000
used!
accept
accept
weight of 0 is 1.930017
weight of 1 is 2.981948
weight of 2 is -3.466667
weight of 3 is 1.000000
not used!
accept
accept
accept
accept
accept
accept
weight of 0 is 1.404229
weight of 1 is 2.981892
weight of 2 is -3.466667
weight of 3 is 0.000000
not used!
weight of 0 is 0.878442
weight of 1 is 2.981871
weight of 2 is -3.644444
weight of 3 is -1.000000
not used!
deny
deny
deny
deny
weight of 0 is 0.352653
weight of 1 is 2.981850
weight of 2 is -4.000000
weight of 3 is -2.000000
not used!
accept
accept
accept
accept
weight of 0 is 0.878477
weight of 1 is 2.981871
weight of 2 is -3.822222
weight of 3 is -1.000000
used!
weight of 0 is 1.404301
weight of 1 is 2.981892
weight of 2 is -3.644444
weight of 3 is 0.000000
used!
accept
accept
weight of 0 is 1.930126
weight of 1 is 2.981913
weight of 2 is -3.288889
weight of 3 is 1.000000
used!
weight of 0 is 2.455950
weight of 1 is 2.981934
weight of 2 is -2.933333
weight of 3 is 2.000000
used!
accept
accept
accept
accept
weight of 0 is 1.930161
weight of 1 is 2.981913
weight of 2 is -3.111111
weight of 3 is 1.000000
not used!
accept
accept
accept
accept
accept
accept
accept
accept
accept
accept
accept
accept
weight of 0 is 1.390361
weight of 1 is 1.841518
weight of 2 is -3.644444
weight of 3 is 0.000000
not used!
deny
deny
accept
accept
accept
accept
weight of 0 is 1.916188
weight of 1 is 1.841539
weight of 2 is -3.288889
weight of 3 is 1.000000
used!
weight of 0 is 2.442015
weight of 1 is 1.841560
weight of 2 is -2.933333
weight of 3 is 2.000000
used!
accept
accept
accept
accept
accept
accept
weight of 0 is 1.916224
weight of 1 is 1.841504
weight of 2 is -2.933333
weight of 3 is 1.000000
not used!
accept
accept
weight of 0 is 1.390432
weight of 1 is 1.841483
weight of 2 is -3.111111
weight of 3 is 0.000000
not used!
accept
accept
weight of 0 is 0.864641
weight of 1 is 1.841462
weight of 2 is -3.466667
weight of 3 is -1.000000
not used!
accept
accept
accept
accept
weight of 0 is 0.338848
weight of 1 is 0.701187
weight of 2 is -3.466667
weight of 3 is -2.000000
not used!
deny
deny
weight of 0 is -0.186945
weight of 1 is 0.701165
weight of 2 is -3.644444
weight of 3 is -3.000000
not used!
deny
deny
deny
deny
weight of 0 is 0.338885
weight of 1 is 0.701222
weight of 2 is -3.644444
weight of 3 is -2.000000
used!
weight of 0 is 0.864716
weight of 1 is 0.701278
weight of 2 is -3.644444
weight of 3 is -1.000000
used!
weight of 0 is 0.338922
weight of 1 is 0.701264
weight of 2 is -3.644444
weight of 3 is -2.000000
not used!
deny
deny
deny
deny
weight of 0 is 0.864752
weight of 1 is 0.701285
weight of 2 is -3.466667
weight of 3 is -1.000000
used!
weight of 0 is 1.390583
weight of 1 is 0.701306
weight of 2 is -3.288889
weight of 3 is 0.000000
used!
accept
accept
accept
accept
weight of 0 is 1.916413
weight of 1 is 0.701327
weight of 2 is -2.933333
weight of 3 is 1.000000
used!
weight of 0 is 2.442244
weight of 1 is 0.701349
weight of 2 is -2.577778
weight of 3 is 2.000000
used!
weight of 0 is 1.916450
weight of 1 is -0.438849
weight of 2 is -2.755556
weight of 3 is 1.000000
not used!
weight of 0 is 1.390655
weight of 1 is -0.438870
weight of 2 is -3.111111
weight of 3 is 0.000000
not used!
accept
accept
weight of 0 is 0.864861
weight of 1 is -0.438884
weight of 2 is -3.111111
weight of 3 is -1.000000
not used!
deny
deny
weight of 0 is 0.339066
weight of 1 is -0.438906
weight of 2 is -3.288889
weight of 3 is -2.000000
not used!
deny
deny
deny
deny
deny
deny
weight of 0 is 0.864898
weight of 1 is -0.438884
weight of 2 is -2.933333
weight of 3 is -1.000000
used!
weight of 0 is 1.390730
weight of 1 is -0.438863
weight of 2 is -2.577778
weight of 3 is 0.000000
used!
accept
accept
accept
accept
weight of 0 is 1.916562
weight of 1 is 0.699853
weight of 2 is -2.577778
weight of 3 is 1.000000
used!
weight of 0 is 2.442394
weight of 1 is 1.838568
weight of 2 is -2.577778
weight of 3 is 2.000000
used!
weight of 0 is 1.916598
weight of 1 is 0.698448
weight of 2 is -2.933333
weight of 3 is 1.000000
not used!
accept
accept
weight of 0 is 1.390802
weight of 1 is 0.698434
weight of 2 is -2.933333
weight of 3 is 0.000000
not used!
weight of 0 is 0.865006
weight of 1 is 0.698413
weight of 2 is -3.111111
weight of 3 is -1.000000
not used!
deny
deny
deny
deny
weight of 0 is 0.339209
weight of 1 is -0.441651
weight of 2 is -3.466667
weight of 3 is -2.000000
not used!
deny
deny
weight of 0 is -0.186589
weight of 1 is -0.441665
weight of 2 is -3.466667
weight of 3 is -3.000000
not used!
deny
deny
weight of 0 is 0.339245
weight of 1 is 0.697037
weight of 2 is -3.111111
weight of 3 is -2.000000
used!
weight of 0 is 0.865078
weight of 1 is 1.835739
weight of 2 is -2.755556
weight of 3 is -1.000000
used!
deny
deny
weight of 0 is 1.390911
weight of 1 is 1.835753
weight of 2 is -2.755556
weight of 3 is 0.000000
used!
weight of 0 is 1.916745
weight of 1 is 1.835767
weight of 2 is -2.755556
weight of 3 is 1.000000
used!
weight of 0 is 1.390947
weight of 1 is 1.835746
weight of 2 is -2.933333
weight of 3 is 0.000000
not used!
accept
accept
weight of 0 is 1.916781
weight of 1 is 2.974459
weight of 2 is -2.755556
weight of 3 is 1.000000
used!
weight of 0 is 2.442615
weight of 1 is 4.113173
weight of 2 is -2.577778
weight of 3 is 2.000000
used!
weight of 0 is 1.916817
weight of 1 is 4.113152
weight of 2 is -2.933333
weight of 3 is 1.000000
not used!
accept
accept
accept
accept
weight of 0 is 2.442651
weight of 1 is 4.113173
weight of 2 is -2.577778
weight of 3 is 2.000000
used!
weight of 0 is 2.968485
weight of 1 is 4.113194
weight of 2 is -2.222222
weight of 3 is 3.000000
used!
weight of 0 is 2.442687
weight of 1 is 4.113159
weight of 2 is -2.400000
weight of 3 is 2.000000
not used!
accept
accept
accept
accept
accept
accept
weight of 0 is 1.916887
weight of 1 is 4.113102
weight of 2 is -2.755556
weight of 3 is 1.000000
not used!
accept
accept
accept
accept
weight of 0 is 1.391088
weight of 1 is 4.113088
weight of 2 is -2.755556
weight of 3 is 0.000000
not used!
accept
accept
accept
accept
accept
accept
accept
accept
accept
accept
accept
accept
weight of 0 is 0.865287
weight of 1 is 2.973172
weight of 2 is -2.933333
weight of 3 is -1.000000
not used!
accept
accept
weight of 0 is 0.339485
weight of 1 is 2.973151
weight of 2 is -3.288889
weight of 3 is -2.000000
not used!
accept
accept
weight of 0 is -0.186316
weight of 1 is 2.973137
weight of 2 is -3.288889
weight of 3 is -3.000000
not used!
weight of 0 is -0.712118
weight of 1 is 2.973116
weight of 2 is -3.466667
weight of 3 is -4.000000
not used!
weight of 0 is -1.237920
weight of 1 is 2.973095
weight of 2 is -3.822222
weight of 3 is -5.000000
not used!
weight of 0 is -1.763722
weight of 1 is 2.973081
weight of 2 is -3.822222
weight of 3 is -6.000000
not used!
deny
deny
weight of 0 is -2.289525
weight of 1 is 2.973060
weight of 2 is -4.000000
weight of 3 is -7.000000
not used!
deny
deny
deny
deny
deny
deny
deny
deny
weight of 0 is -1.763686
weight of 1 is 4.111595
weight of 2 is -3.822222
weight of 3 is -6.000000
used!
weight of 0 is -1.237848
weight of 1 is 5.250130
weight of 2 is -3.644444
weight of 3 is -5.000000
used!
deny
deny
weight of 0 is -0.712009
weight of 1 is 6.388653
weight of 2 is -3.288889
weight of 3 is -4.000000
used!
weight of 0 is -0.186170
weight of 1 is 7.527176
weight of 2 is -2.933333
weight of 3 is -3.000000
used!
deny
deny
weight of 0 is 0.339669
weight of 1 is 7.527190
weight of 2 is -2.933333
weight of 3 is -2.000000
used!
weight of 0 is 0.865508
weight of 1 is 7.527204
weight of 2 is -2.933333
weight of 3 is -1.000000
used!
weight of 0 is 0.339705
weight of 1 is 7.527190
weight of 2 is -2.933333
weight of 3 is -2.000000
not used!
accept
accept
weight of 0 is 0.879530
weight of 1 is 8.665782
weight of 2 is -2.222222
weight of 3 is -1.000000
used!
weight of 0 is 1.419357
weight of 1 is 9.804373
weight of 2 is -1.511111
weight of 3 is 0.000000
used!
accept
accept
weight of 0 is 1.945196
weight of 1 is 9.804394
weight of 2 is -1.333333
weight of 3 is 1.000000
used!
weight of 0 is 2.471035
weight of 1 is 9.804415
weight of 2 is -1.155556
weight of 3 is 2.000000
used!
weight of 0 is 1.945231
weight of 1 is 9.804394
weight of 2 is -1.333333
weight of 3 is 1.000000
not used!
accept
accept
accept
accept
weight of 0 is 1.419426
weight of 1 is 9.804338
weight of 2 is -1.688889
weight of 3 is 0.000000
not used!
accept
accept
weight of 0 is 0.893621
weight of 1 is 9.804324
weight of 2 is -1.688889
weight of 3 is -1.000000
not used!
deny
deny
accept
accept
accept
accept
weight of 0 is 1.419462
weight of 1 is 9.804338
weight of 2 is -1.688889
weight of 3 is 0.000000
used!
weight of 0 is 1.945304
weight of 1 is 9.804352
weight of 2 is -1.688889
weight of 3 is 1.000000
used!
accept
accept
weight of 0 is 1.419498
weight of 1 is 9.804296
weight of 2 is -1.866667
weight of 3 is 0.000000
not used!
weight of 0 is 0.893692
weight of 1 is 9.804274
weight of 2 is -2.222222
weight of 3 is -1.000000
not used!
weight of 0 is 0.367885
weight of 1 is 9.804260
weight of 2 is -2.222222
weight of 3 is -2.000000
not used!
accept
accept
weight of 0 is -0.157922
weight of 1 is 9.804239
weight of 2 is -2.400000
weight of 3 is -3.000000
not used!
weight of 0 is -0.683729
weight of 1 is 9.804204
weight of 2 is -2.400000
weight of 3 is -4.000000
not used!
accept
accept
accept
accept
accept
accept
deny
deny
weight of 0 is -1.209537
weight of 1 is 9.804148
weight of 2 is -2.577778
weight of 3 is -5.000000
not used!
deny
deny
deny
deny
weight of 0 is -0.683694
weight of 1 is 9.804204
weight of 2 is -2.400000
weight of 3 is -4.000000
used!
weight of 0 is -0.157850
weight of 1 is 9.804260
weight of 2 is -2.222222
weight of 3 is -3.000000
used!
deny
deny
weight of 0 is 0.367994
weight of 1 is 9.804281
weight of 2 is -1.866667
weight of 3 is -2.000000
used!
weight of 0 is 0.893838
weight of 1 is 9.804303
weight of 2 is -1.511111
weight of 3 is -1.000000
used!
deny
deny
[...]
weight of 3 is -9.000000
used!
weight of 0 is -20.399260
weight of 1 is -17.486417
weight of 2 is -27.866667
weight of 3 is -10.000000
not used!
weight of 0 is -20.891202
weight of 1 is -17.487795
weight of 2 is -28.333333
weight of 3 is -11.000000
not used!
deny
deny
deny
deny
weight of 0 is -20.307127
weight of 1 is -17.487780
weight of 2 is -27.800000
weight of 3 is -10.000000
used!
weight of 0 is -19.723051
weight of 1 is -17.487766
weight of 2 is -27.266667
weight of 3 is -9.000000
used!
weight of 0 is -20.215073
weight of 1 is -17.488367
weight of 2 is -27.711111
weight of 3 is -10.000000
not used!
weight of 0 is -20.732515
weight of 1 is -19.563339
weight of 2 is -28.955556
weight of 3 is -11.000000
not used!
weight of 0 is -21.272510
weight of 1 is -21.399176
weight of 2 is -30.200000
weight of 3 is -12.000000
not used!
deny
deny
weight of 0 is -21.812577
weight of 1 is -21.399227
weight of 2 is -30.377778
weight of 3 is -13.000000
not used!
deny
deny
weight of 0 is -21.228501
weight of 1 is -21.399213
weight of 2 is -30.200000
weight of 3 is -12.000000
used!
weight of 0 is -20.644426
weight of 1 is -21.399199
weight of 2 is -30.022222
weight of 3 is -11.000000
used!
weight of 0 is -21.184492
weight of 1 is -21.399209
weight of 2 is -30.911111
weight of 3 is -12.000000
not used!
weight of 0 is -21.678384
weight of 1 is -25.157712
weight of 2 is -32.155556
weight of 3 is -13.000000
not used!
deny
deny
weight of 0 is -21.094308
weight of 1 is -21.527472
weight of 2 is -31.266667
weight of 3 is -12.000000
used!
weight of 0 is -20.510233
weight of 1 is -17.897231
weight of 2 is -30.377778
weight of 3 is -11.000000
used!
deny
deny
deny
deny
weight of 0 is -19.926157
weight of 1 is -14.232483
weight of 2 is -29.844444
weight of 3 is -10.000000
used!
weight of 0 is -19.342081
weight of 1 is -10.567735
weight of 2 is -29.311111
weight of 3 is -9.000000
used!
deny
deny
weight of 0 is -19.859601
weight of 1 is -12.490433
weight of 2 is -29.666667
weight of 3 is -10.000000
not used!
deny
deny
weight of 0 is -20.353489
weight of 1 is -14.414142
weight of 2 is -29.666667
weight of 3 is -11.000000
not used!
deny
deny
weight of 0 is -19.769413
weight of 1 is -14.414128
weight of 2 is -29.488889
weight of 3 is -10.000000
used!
weight of 0 is -19.185336
weight of 1 is -14.414114
weight of 2 is -29.311111
weight of 3 is -9.000000
used!
deny
deny
weight of 0 is -19.725402
weight of 1 is -18.173616
weight of 2 is -30.555556
weight of 3 is -10.000000
not used!
deny
deny
weight of 0 is -20.265475
weight of 1 is -21.954941
weight of 2 is -31.266667
weight of 3 is -11.000000
not used!
deny
deny
weight of 0 is -19.681399
weight of 1 is -19.148241
weight of 2 is -30.377778
weight of 3 is -10.000000
used!
weight of 0 is -19.097322
weight of 1 is -16.341541
weight of 2 is -29.488889
weight of 3 is -9.000000
used!
weight of 0 is -19.591293
weight of 1 is -20.094197
weight of 2 is -29.488889
weight of 3 is -10.000000
not used!
deny
deny
weight of 0 is -19.007217
weight of 1 is -16.463604
weight of 2 is -28.955556
weight of 3 is -9.000000
used!
weight of 0 is -18.423140
weight of 1 is -12.833012
weight of 2 is -28.422222
weight of 3 is -8.000000
used!
weight of 0 is -18.915157
weight of 1 is -12.992016
weight of 2 is -29.311111
weight of 3 is -9.000000
not used!
deny
deny
weight of 0 is -18.331080
weight of 1 is -12.951238
weight of 2 is -29.133333
weight of 3 is -8.000000
used!
weight of 0 is -17.747003
weight of 1 is -12.910460
weight of 2 is -28.955556
weight of 3 is -7.000000
used!
deny
deny
weight of 0 is -17.162926
weight of 1 is -12.910432
weight of 2 is -28.066667
weight of 3 is -6.000000
used!
weight of 0 is -16.578849
weight of 1 is -12.910404
weight of 2 is -27.177778
weight of 3 is -5.000000
used!
weight of 0 is -17.118923
weight of 1 is -16.822049
weight of 2 is -28.244444
weight of 3 is -6.000000
not used!
deny
deny
weight of 0 is -16.534846
weight of 1 is -16.822035
weight of 2 is -27.711111
weight of 3 is -5.000000
used!
weight of 0 is -15.950768
weight of 1 is -16.822021
weight of 2 is -27.177778
weight of 3 is -4.000000
used!
deny
deny
weight of 0 is -15.935642
weight of 1 is -16.660955
weight of 2 is -27.177778
weight of 3 is -3.000000
used!
weight of 0 is -15.920516
weight of 1 is -16.499890
weight of 2 is -27.177778
weight of 3 is -2.000000
used!
deny
deny
weight of 0 is -15.336439
weight of 1 is -16.499876
weight of 2 is -27.000000
weight of 3 is -1.000000
used!
weight of 0 is -14.752361
weight of 1 is -16.499862
weight of 2 is -26.822222
weight of 3 is 0.000000
used!
weight of 0 is -15.244146
weight of 1 is -20.410708
weight of 2 is -27.022222
weight of 3 is -1.000000
not used!
deny
deny
weight of 0 is -14.660068
weight of 1 is -20.410680
weight of 2 is -26.133333
weight of 3 is 0.000000
used!
weight of 0 is -14.075990
weight of 1 is -20.410652
weight of 2 is -25.244444
weight of 3 is 1.000000
used!
weight of 0 is -14.615958
weight of 1 is -24.177107
weight of 2 is -26.488889
weight of 3 is 0.000000
not used!
deny
deny
weight of 0 is -14.031880
weight of 1 is -20.276372
weight of 2 is -25.955556
weight of 3 is 1.000000
used!
weight of 0 is -13.447802
weight of 1 is -16.375637
weight of 2 is -25.422222
weight of 3 is 2.000000
used!
deny
deny
weight of 0 is -12.863724
weight of 1 is -16.375623
weight of 2 is -25.244444
weight of 3 is 3.000000
used!
weight of 0 is -12.279645
weight of 1 is -16.375609
weight of 2 is -25.066667
weight of 3 is 4.000000
used!
weight of 0 is -12.773619
weight of 1 is -20.128014
weight of 2 is -26.044444
weight of 3 is 3.000000
not used!
deny
deny
weight of 0 is -12.189540
weight of 1 is -20.127986
weight of 2 is -25.155556
weight of 3 is 4.000000
used!
weight of 0 is -11.605462
weight of 1 is -20.127958
weight of 2 is -24.266667
weight of 3 is 5.000000
used!
deny
deny
weight of 0 is -12.111219
weight of 1 is -21.087181
weight of 2 is -25.333333
weight of 3 is 4.000000
not used!
deny
deny
weight of 0 is -11.527141
weight of 1 is -21.087167
weight of 2 is -24.800000
weight of 3 is 5.000000
used!
weight of 0 is -10.943062
weight of 1 is -21.087153
weight of 2 is -24.266667
weight of 3 is 6.000000
used!
weight of 0 is -11.437279
weight of 1 is -22.026520
weight of 2 is -25.155556
weight of 3 is 5.000000
not used!
deny
deny
weight of 0 is -10.853200
weight of 1 is -22.026506
weight of 2 is -24.977778
weight of 3 is 6.000000
used!
weight of 0 is -10.269121
weight of 1 is -22.026491
weight of 2 is -24.800000
weight of 3 is 7.000000
used!
weight of 0 is -10.762927
weight of 1 is -22.051359
weight of 2 is -24.800000
weight of 3 is 6.000000
not used!
deny
deny
deny
deny
weight of 0 is -10.178848
weight of 1 is -21.998203
weight of 2 is -23.911111
weight of 3 is 7.000000
used!
weight of 0 is -9.594768
weight of 1 is -21.945046
weight of 2 is -23.022222
weight of 3 is 8.000000
used!
deny
deny
weight of 0 is -9.010689
weight of 1 is -21.945032
weight of 2 is -22.488889
weight of 3 is 9.000000
used!
weight of 0 is -8.426609
weight of 1 is -21.945018
weight of 2 is -21.955556
weight of 3 is 10.000000
used!
weight of 0 is -8.918618
weight of 1 is -21.945723
weight of 2 is -22.488889
weight of 3 is 9.000000
not used!
weight of 0 is -9.412594
weight of 1 is -22.105034
weight of 2 is -22.666667
weight of 3 is 8.000000
not used!
deny
deny
weight of 0 is -8.828514
weight of 1 is -18.255312
weight of 2 is -22.488889
weight of 3 is 9.000000
used!
weight of 0 is -8.244434
weight of 1 is -14.405589
weight of 2 is -22.311111
weight of 3 is 10.000000
used!
accept
accept
weight of 0 is -7.660355
weight of 1 is -14.405561
weight of 2 is -21.422222
weight of 3 is 11.000000
used!
weight of 0 is -7.076275
weight of 1 is -14.405532
weight of 2 is -20.533333
weight of 3 is 12.000000
used!
deny
deny
weight of 0 is -7.570491
weight of 1 is -14.405736
weight of 2 is -21.333333
weight of 3 is 11.000000
not used!
deny
deny
deny
deny
deny
deny
deny
deny
weight of 0 is -8.064731
weight of 1 is -14.407679
weight of 2 is -21.333333
weight of 3 is 10.000000
not used!
deny
deny
weight of 0 is -7.480650
weight of 1 is -10.556904
weight of 2 is -21.155556
weight of 3 is 11.000000
used!
weight of 0 is -6.896569
weight of 1 is -6.706129
weight of 2 is -20.977778
weight of 3 is 12.000000
used!
weight of 0 is -7.391768
weight of 1 is -6.783632
weight of 2 is -21.377778
weight of 3 is 11.000000
not used!
accept
accept
weight of 0 is -6.807687
weight of 1 is -6.783604
weight of 2 is -20.488889
weight of 3 is 12.000000
used!
weight of 0 is -6.223605
weight of 1 is -6.783576
weight of 2 is -19.600000
weight of 3 is 13.000000
used!
weight of 0 is -6.717983
weight of 1 is -6.816354
weight of 2 is -20.400000
weight of 3 is 12.000000
not used!
accept
accept
weight of 0 is -7.212375
weight of 1 is -6.837385
weight of 2 is -20.444444
weight of 3 is 11.000000
not used!
deny
deny
weight of 0 is -7.706868
weight of 1 is -6.845566
weight of 2 is -21.088889
weight of 3 is 10.000000
not used!
deny
deny
weight of 0 is -8.198664
weight of 1 is -7.103341
weight of 2 is -21.133333
weight of 3 is 9.000000
not used!
deny
deny
weight of 0 is -8.716187
weight of 1 is -9.177630
weight of 2 is -21.488889
weight of 3 is 8.000000
not used!
weight of 0 is -9.211140
weight of 1 is -10.994896
weight of 2 is -22.511111
weight of 3 is 7.000000
not used!
weight of 0 is -9.705105
weight of 1 is -11.020300
weight of 2 is -23.311111
weight of 3 is 6.000000
not used!
deny
deny
weight of 0 is -9.121023
weight of 1 is -7.170371
weight of 2 is -23.133333
weight of 3 is 7.000000
used!
weight of 0 is -8.536941
weight of 1 is -3.320441
weight of 2 is -22.955556
weight of 3 is 8.000000
used!
weight of 0 is -9.030831
weight of 1 is -3.320727
weight of 2 is -23.488889
weight of 3 is 7.000000
not used!
deny
deny
weight of 0 is -8.446749
weight of 1 is -3.320698
weight of 2 is -22.600000
weight of 3 is 8.000000
used!
weight of 0 is -7.862666
weight of 1 is -3.320670
weight of 2 is -21.711111
weight of 3 is 9.000000
used!
deny
deny
weight of 0 is -7.278583
weight of 1 is -3.320656
weight of 2 is -21.177778
weight of 3 is 10.000000
used!
weight of 0 is -6.694500
weight of 1 is -3.320642
weight of 2 is -20.644444
weight of 3 is 11.000000
used!
deny
deny
weight of 0 is -6.110417
weight of 1 is -3.320628
weight of 2 is -20.466667
weight of 3 is 12.000000
used!
weight of 0 is -5.526334
weight of 1 is -3.320614
weight of 2 is -20.288889
weight of 3 is 13.000000
used!
accept
accept
weight of 0 is -6.032359
weight of 1 is -3.320652
weight of 2 is -20.288889
weight of 3 is 12.000000
not used!
deny
deny
weight of 0 is -5.448275
weight of 1 is -3.320623
weight of 2 is -19.400000
weight of 3 is 13.000000
used!
weight of 0 is -4.864192
weight of 1 is -3.320595
weight of 2 is -18.511111
weight of 3 is 14.000000
used!
deny
deny
weight of 0 is -4.280109
weight of 1 is -3.320581
weight of 2 is -17.977778
weight of 3 is 15.000000
used!
weight of 0 is -3.696025
weight of 1 is -3.320567
weight of 2 is -17.444444
weight of 3 is 16.000000
used!
accept
accept
weight of 0 is -3.111941
weight of 1 is 0.530415
weight of 2 is -17.266667
weight of 3 is 17.000000
used!
weight of 0 is -2.527857
weight of 1 is 4.381396
weight of 2 is -17.088889
weight of 3 is 18.000000
used!
weight of 0 is -2.542983
weight of 1 is 4.120046
weight of 2 is -17.088889
weight of 3 is 17.000000
not used!
accept
accept
accept
accept
weight of 0 is -2.528377
weight of 1 is 7.969755
weight of 2 is -17.088889
weight of 3 is 18.000000
used!
weight of 0 is -2.513771
weight of 1 is 11.819464
weight of 2 is -17.088889
weight of 3 is 19.000000
used!
accept
accept
accept
accept
accept
accept
accept
accept
accept
accept
accept
accept
accept
accept
accept
accept
accept
accept
accept
accept
accept
accept
accept
accept
accept
accept
accept
accept
accept
accept
accept
accept
accept
accept
accept
accept
accept
accept
accept
accept
accept
accept
accept
accept
accept
accept
accept
accept
accept
accept
accept
accept
accept
accept
accept
accept
accept
accept
accept
accept
accept
accept
accept
accept
accept
accept
accept
accept
accept
accept
weight of 0 is -3.084688
weight of 1 is 10.744378
weight of 2 is -17.088889
weight of 3 is 18.000000
not used!
accept
accept
accept
accept
accept
accept
accept
accept
accept
accept
accept
accept
accept
accept
weight of 0 is -3.590713
weight of 1 is 10.559718
weight of 2 is -17.088889
weight of 3 is 17.000000
not used!
weight of 0 is -4.106995
weight of 1 is 9.724790
weight of 2 is -17.266667
weight of 3 is 16.000000
not used!
accept
accept
weight of 0 is -4.677912
weight of 1 is 8.667679
weight of 2 is -17.266667
weight of 3 is 15.000000
not used!
accept
accept
accept
accept
weight of 0 is -4.693038
weight of 1 is 5.823454
weight of 2 is -17.266667
weight of 3 is 14.000000
not used!
accept
accept
accept
accept
accept
accept
accept
accept
accept
accept
accept
accept
accept
accept
accept
accept
deny
deny
accept
accept
accept
accept
accept
accept
accept
accept
accept
accept
accept
accept
accept
accept
accept
accept
accept
accept
accept
accept
accept
accept
accept
accept
accept
accept
weight of 0 is -5.277136
weight of 1 is 5.823397
weight of 2 is -17.800000
weight of 3 is 13.000000
not used!
accept
accept
accept
accept
weight of 0 is -5.848053
weight of 1 is 4.750209
weight of 2 is -17.800000
weight of 3 is 12.000000
not used!
accept
accept
accept
accept
accept
accept
accept
accept
accept
accept
accept
accept
accept
accept
accept
accept
accept
accept
accept
accept
accept
accept
accept
accept
accept
accept
accept
accept
accept
accept
accept
accept
accept
accept
accept
accept
accept
accept
accept
accept
accept
accept
weight of 0 is -6.354078
weight of 1 is 1.090144
weight of 2 is -17.800000
weight of 3 is 11.000000
not used!
weight of 0 is -6.938191
weight of 1 is -2.569978
weight of 2 is -17.977778
weight of 3 is 10.000000
not used!
deny
deny
accept
accept
deny
deny
accept
accept
deny
deny
weight of 0 is -6.354056
weight of 1 is -2.569921
weight of 2 is -17.444444
weight of 3 is 11.000000
used!
weight of 0 is -5.769921
weight of 1 is -2.569865
weight of 2 is -16.911111
weight of 3 is 12.000000
used!
accept
accept
weight of 0 is -5.185786
weight of 1 is 1.283991
weight of 2 is -16.733333
weight of 3 is 13.000000
used!
weight of 0 is -4.601651
weight of 1 is 5.137847
weight of 2 is -16.555556
weight of 3 is 14.000000
used!
accept
accept
accept
accept
accept
accept
accept
accept
accept
accept
accept
accept
accept
accept
accept
accept
accept
accept
accept
accept
accept
accept
accept
accept
accept
accept
accept
accept
accept
accept
accept
accept
accept
accept
accept
accept
accept
accept
accept
accept
accept
accept
accept
accept
accept
accept
accept
accept
accept
accept
accept
accept
accept
accept
accept
accept
accept
accept
accept
accept
accept
accept
accept
accept
accept
accept
weight of 0 is -5.172568
weight of 1 is 4.062085
weight of 2 is -16.555556
weight of 3 is 13.000000
not used!
accept
accept
accept
accept
accept
accept
deny
deny
accept
accept
accept
accept
accept
accept
accept
accept
accept
accept
accept
accept
accept
accept
accept
accept
accept
accept
accept
accept
weight of 0 is -5.756711
weight of 1 is 0.206721
weight of 2 is -17.088889
weight of 3 is 12.000000
not used!
accept
accept
accept
accept
accept
accept
accept
accept
accept
accept
accept
accept
accept
accept
accept
accept
accept
accept
accept
accept
accept
accept
accept
accept
accept
accept
accept
accept
accept
accept
accept
accept
accept
accept
accept
accept
accept
accept
accept
accept
accept
accept
accept
accept
accept
accept
accept
accept
accept
accept
accept
accept
accept
accept
weight of 0 is -6.340868
weight of 1 is 0.206665
weight of 2 is -17.266667
weight of 3 is 11.000000
not used!
accept
accept
accept
accept
accept
accept
accept
accept
accept
accept
accept
accept
accept
accept
accept
accept
accept
accept
accept
accept
accept
accept
accept
accept
accept
accept
accept
accept
weight of 0 is -6.911785
weight of 1 is -0.875564
weight of 2 is -17.266667
weight of 3 is 10.000000
not used!
deny
deny
accept
accept
accept
accept
accept
accept
accept
accept
accept
accept
accept
accept
accept
accept
accept
accept
accept
accept
deny
deny
deny
deny
accept
accept
accept
accept
accept
accept
accept
accept
accept
accept
accept
accept
accept
accept
accept
accept
accept
accept
accept
accept
accept
accept
accept
accept
accept
accept
accept
accept
accept
accept
accept
accept
accept
accept
accept
accept
deny
deny
deny
deny
accept
accept
weight of 0 is -6.327583
weight of 1 is -0.875536
weight of 2 is -16.377778
weight of 3 is 11.000000
used!
weight of 0 is -5.743381
weight of 1 is -0.875508
weight of 2 is -15.488889
weight of 3 is 12.000000
used!
accept
accept
accept
accept
accept
accept
accept
accept
accept
accept
accept
accept
accept
accept
accept
accept
accept
accept
accept
accept
accept
accept
accept
accept
accept
accept
accept
accept
accept
accept
accept
accept
accept
accept
accept
accept
weight of 0 is -5.758507
weight of 1 is -1.944314
weight of 2 is -15.488889
weight of 3 is 11.000000
not used!
accept
accept
accept
accept
accept
accept
accept
accept
accept
accept
accept
accept
accept
accept
deny
deny
accept
accept
accept
accept
accept
accept
accept
accept
accept
accept
accept
accept
accept
accept
accept
accept
accept
accept
accept
accept
accept
accept
accept
accept
weight of 0 is -5.773114
weight of 1 is -5.804539
weight of 2 is -15.488889
weight of 3 is 10.000000
not used!
accept
accept
accept
accept
weight of 0 is -5.787709
weight of 1 is -9.663918
weight of 2 is -15.488889
weight of 3 is 9.000000
not used!
accept
accept
accept
accept
accept
accept
weight of 0 is -6.371922
weight of 1 is -9.663975
weight of 2 is -15.666667
weight of 3 is 8.000000
not used!
accept
accept
accept
accept
accept
accept
accept
accept
weight of 0 is -6.386662
weight of 1 is -9.702684
weight of 2 is -16.200000
weight of 3 is 7.000000
not used!
accept
accept
accept
accept
accept
accept
weight of 0 is -6.401788
weight of 1 is -13.942264
weight of 2 is -16.200000
weight of 3 is 6.000000
not used!
accept
accept
accept
accept
weight of 0 is -6.416914
weight of 1 is -17.880265
weight of 2 is -16.200000
weight of 3 is 5.000000
not used!
accept
accept
accept
accept
accept
accept
accept
accept
accept
accept
accept
accept
accept
accept
accept
accept
accept
accept
accept
accept
accept
accept
accept
accept
accept
accept
accept
accept
accept
accept
deny
deny
deny
deny
accept
accept
accept
accept
accept
accept
accept
accept
accept
accept
accept
accept
accept
accept
accept
accept
accept
accept
accept
accept
accept
accept
accept
accept
accept
accept
accept
accept
accept
accept
accept
accept
accept
accept
accept
accept
accept
accept
accept
accept
accept
accept
accept
accept
accept
accept
accept
accept
accept
accept
accept
accept
accept
accept
accept
accept
accept
accept
accept
accept
weight of 0 is -6.453888
weight of 1 is -18.189316
weight of 2 is -16.200000
weight of 3 is 4.000000
not used!
deny
deny
deny
deny
deny
deny
deny
deny
deny
deny
weight of 0 is -6.420701
weight of 1 is -17.880359
weight of 2 is -16.200000
weight of 3 is 5.000000
used!
weight of 0 is -6.387513
weight of 1 is -17.571403
weight of 2 is -16.200000
weight of 3 is 6.000000
used!
accept
accept
weight of 0 is -6.350529
weight of 1 is -17.262389
weight of 2 is -16.200000
weight of 3 is 7.000000
used!
weight of 0 is -6.313545
weight of 1 is -16.953376
weight of 2 is -16.200000
weight of 3 is 8.000000
used!
accept
accept
weight of 0 is -6.280357
weight of 1 is -16.644382
weight of 2 is -16.200000
weight of 3 is 9.000000
used!
weight of 0 is -6.247169
weight of 1 is -16.335387
weight of 2 is -16.200000
weight of 3 is 10.000000
used!
accept
accept
accept
accept
accept
accept
accept
accept
accept
accept
accept
accept
accept
accept
accept
accept
accept
accept
accept
accept
accept
accept
accept
accept
accept
accept
accept
accept
accept
accept
accept
accept
accept
accept
accept
accept
accept
accept
accept
accept
accept
accept
accept
accept
Exiting @ tick 10515490000 because a thread reached the max instruction count
