Running SPEC test: perlbench

/home/victorfu/cpu2017/benchspec/CPU/500.perlbench_r
/home/victorfu/finalproject/gem5/build/X86/gem6.opt --outdir="/home/victorfu/output/bench_spec/fastforward/perlbench" /home/victorfu/finalproject/gem5/configs/example/se.py --cmd=perlbench_r_base.victor_jun10-m64 --standard-switch=0 --warmup-insts=26000000 --caches  --l2cache --l1i_size=16kB  --l1d_size=64kB --l2_size=256kB --cpu-type=DerivO3CPU  --mem-type=DDR3_1600_8x8  --cpu-clock=1GHz --maxinsts=10000000 --options="-I./lib checkspam.pl 2500 5 25 11 150 1 1 1 1" --l2-hwp-type=TaggedPrefetcher --mlu_pf_type=perceptron

gem5 Simulator System.  http://gem5.org
gem5 is copyrighted software; use the --copyright option for details.

gem5 compiled Jun 14 2019 14:23:51
gem5 started Jun 14 2019 15:13:52
gem5 executing on tetracosa.cs.ucla.edu, pid 138647
command line: /home/victorfu/finalproject/gem5/build/X86/gem6.opt --outdir=/home/victorfu/output/bench_spec/fastforward/perlbench /home/victorfu/finalproject/gem5/configs/example/se.py --cmd=perlbench_r_base.victor_jun10-m64 --standard-switch=0 --warmup-insts=26000000 --caches --l2cache --l1i_size=16kB --l1d_size=64kB --l2_size=256kB --cpu-type=DerivO3CPU --mem-type=DDR3_1600_8x8 --cpu-clock=1GHz --maxinsts=10000000 '--options=-I./lib checkspam.pl 2500 5 25 11 150 1 1 1 1' --l2-hwp-type=TaggedPrefetcher --mlu_pf_type=perceptron

info: Standard input is not a terminal, disabling listeners.
Warning: l2-hwp-type is set ( TaggedPrefetcher ), but the current l2 has a default Hardware Prefetcher of type <class 'm5.params.NullSimObject'> , using the specified by the flag option.
MLU-Prefetch Perceptron Enabled.
Global frequency set at 1000000000000 ticks per second
warn: DRAM device capacity (8192 Mbytes) does not match the address range assigned (512 Mbytes)
warn: Sockets disabled, not accepting gdb connections
**** REAL SIMULATION ****
info: Entering event queue @ 0.  Starting simulation...
accept
accept
accept
accept
accept
accept
accept
accept
accept
accept
accept
accept
accept
accept
accept
accept
accept
accept
accept
accept
accept
accept
accept
accept
accept
accept
accept
accept
accept
accept
accept
accept
accept
accept
accept
accept
accept
accept
accept
accept
accept
accept
accept
accept
accept
accept
accept
accept
accept
accept
accept
accept
accept
accept
accept
accept
accept
accept
accept
accept
accept
accept
accept
accept
accept
accept
accept
accept
accept
accept
accept
accept
accept
accept
accept
accept
accept
accept
accept
accept
accept
accept
accept
accept
accept
accept
accept
accept
accept
accept
accept
accept
accept
accept
accept
accept
accept
accept
accept
accept
accept
accept
accept
accept
accept
accept
accept
accept
accept
accept
accept
accept
accept
accept
accept
accept
accept
accept
accept
accept
accept
accept
accept
accept
info: Increasing stack size by one page.
accept
accept
accept
accept
accept
accept
accept
accept
accept
accept
accept
accept
accept
accept
accept
accept
accept
accept
accept
accept
accept
accept
accept
accept
accept
accept
accept
accept
accept
accept
accept
accept
accept
accept
accept
accept
accept
accept
accept
accept
accept
accept
accept
accept
accept
accept
accept
accept
accept
accept
accept
accept
accept
accept
accept
accept
accept
accept
accept
accept
accept
accept
accept
accept
accept
accept
accept
accept
accept
accept
accept
accept
accept
accept
accept
accept
accept
accept
accept
accept
accept
accept
accept
accept
accept
accept
accept
accept
accept
accept
accept
accept
accept
accept
accept
accept
accept
accept
accept
accept
accept
accept
accept
accept
accept
accept
accept
accept
accept
accept
accept
accept
accept
accept
accept
accept
accept
accept
accept
accept
accept
accept
accept
accept
accept
accept
accept
accept
accept
accept
accept
accept
accept
accept
accept
accept
accept
accept
accept
accept
accept
accept
accept
accept
accept
accept
accept
accept
weight of 0 is -0.502220
weight of 1 is -0.003469
weight of 2 is -0.355556
weight of 3 is -1.000000
not used!
weight of 0 is -1.004449
weight of 1 is -0.004507
weight of 2 is -1.244444
weight of 3 is -2.000000
not used!
deny
deny
deny
deny
weight of 0 is -1.506678
weight of 1 is -0.004528
weight of 2 is -2.311111
weight of 3 is -3.000000
not used!
deny
deny
deny
deny
weight of 0 is -1.004953
weight of 1 is -0.003795
weight of 2 is -2.311111
weight of 3 is -2.000000
used!
weight of 0 is -0.503226
weight of 1 is -0.003062
weight of 2 is -2.311111
weight of 3 is -1.000000
used!
deny
deny
deny
deny
deny
deny
weight of 0 is -0.001501
weight of 1 is -0.003044
weight of 2 is -2.311111
weight of 3 is 0.000000
used!
weight of 0 is 0.500225
weight of 1 is -0.003025
weight of 2 is -2.311111
weight of 3 is 1.000000
used!
weight of 0 is -0.002003
weight of 1 is -0.003140
weight of 2 is -2.666667
weight of 3 is 0.000000
not used!
accept
accept
weight of 0 is -0.504232
weight of 1 is -0.003168
weight of 2 is -3.733333
weight of 3 is -1.000000
not used!
deny
deny
weight of 0 is -0.002506
weight of 1 is 0.037495
weight of 2 is -3.733333
weight of 3 is 0.000000
used!
weight of 0 is 0.499220
weight of 1 is 0.078157
weight of 2 is -3.733333
weight of 3 is 1.000000
used!
accept
accept
weight of 0 is 1.000946
weight of 1 is 0.118923
weight of 2 is -3.733333
weight of 3 is 2.000000
used!
weight of 0 is 1.502672
weight of 1 is 0.159690
weight of 2 is -3.733333
weight of 3 is 3.000000
used!
accept
accept
accept
accept
weight of 0 is 1.000442
weight of 1 is 0.118668
weight of 2 is -4.444444
weight of 3 is 2.000000
not used!
accept
accept
weight of 0 is 0.498212
weight of 1 is 0.118639
weight of 2 is -4.444444
weight of 3 is 1.000000
not used!
weight of 0 is -0.004007
weight of 1 is 0.117738
weight of 2 is -4.444444
weight of 3 is 0.000000
not used!
accept
accept
weight of 0 is -0.505733
weight of 1 is 0.077702
weight of 2 is -4.444444
weight of 3 is -1.000000
not used!
deny
deny
deny
deny
deny
deny
weight of 0 is -1.007443
weight of 1 is 0.076387
weight of 2 is -4.444444
weight of 3 is -2.000000
not used!
deny
deny
weight of 0 is -1.509153
weight of 1 is 0.076382
weight of 2 is -5.511111
weight of 3 is -3.000000
not used!
deny
deny
weight of 0 is -2.010863
weight of 1 is 0.076335
weight of 2 is -5.688889
weight of 3 is -4.000000
not used!
deny
deny
weight of 0 is -2.513079
weight of 1 is 0.035146
weight of 2 is -6.400000
weight of 3 is -5.000000
not used!
deny
deny
deny
deny
weight of 0 is -3.015193
weight of 1 is 0.026908
weight of 2 is -6.400000
weight of 3 is -6.000000
not used!
deny
deny
weight of 0 is -3.516900
weight of 1 is -0.006269
weight of 2 is -6.488889
weight of 3 is -7.000000
not used!
deny
deny
weight of 0 is -3.015175
weight of 1 is -0.000727
weight of 2 is -6.488889
weight of 3 is -6.000000
used!
weight of 0 is -2.513449
weight of 1 is 0.004815
weight of 2 is -6.488889
weight of 3 is -5.000000
used!
deny
deny
deny
deny
weight of 0 is -3.015678
weight of 1 is -0.036223
weight of 2 is -7.022222
weight of 3 is -6.000000
not used!
deny
deny
weight of 0 is -2.513724
weight of 1 is -0.036156
weight of 2 is -6.400000
weight of 3 is -5.000000
used!
weight of 0 is -2.011769
weight of 1 is -0.036089
weight of 2 is -5.777778
weight of 3 is -4.000000
used!
deny
deny
weight of 0 is -1.510043
weight of 1 is -0.028462
weight of 2 is -5.777778
weight of 3 is -3.000000
used!
weight of 0 is -1.008317
weight of 1 is -0.020834
weight of 2 is -5.777778
weight of 3 is -2.000000
used!
weight of 0 is -1.510023
weight of 1 is -0.063618
weight of 2 is -5.866667
weight of 3 is -3.000000
not used!
deny
deny
weight of 0 is -1.008297
weight of 1 is -0.063600
weight of 2 is -5.866667
weight of 3 is -2.000000
used!
weight of 0 is -0.506571
weight of 1 is -0.063581
weight of 2 is -5.866667
weight of 3 is -1.000000
used!
weight of 0 is -1.008277
weight of 1 is -0.063609
weight of 2 is -6.666667
weight of 3 is -2.000000
not used!
deny
deny
weight of 0 is -0.506551
weight of 1 is -0.033084
weight of 2 is -6.666667
weight of 3 is -1.000000
used!
weight of 0 is -0.004825
weight of 1 is -0.002560
weight of 2 is -6.666667
weight of 3 is 0.000000
used!
weight of 0 is -0.506531
weight of 1 is -0.002680
weight of 2 is -8.000000
weight of 3 is -1.000000
not used!
deny
deny
weight of 0 is -0.004805
weight of 1 is -0.002661
weight of 2 is -8.000000
weight of 3 is 0.000000
used!
weight of 0 is 0.496921
weight of 1 is -0.002642
weight of 2 is -8.000000
weight of 3 is 1.000000
used!
weight of 0 is -0.004786
weight of 1 is -0.002643
weight of 2 is -8.000000
weight of 3 is 0.000000
not used!
weight of 0 is -0.506512
weight of 1 is -0.004278
weight of 2 is -8.000000
weight of 3 is -1.000000
not used!
deny
deny
deny
deny
weight of 0 is -0.004786
weight of 1 is -0.004240
weight of 2 is -8.000000
weight of 3 is 0.000000
used!
weight of 0 is 0.496940
weight of 1 is -0.004202
weight of 2 is -8.000000
weight of 3 is 1.000000
used!
deny
deny
accept
accept
weight of 0 is 0.998666
weight of 1 is -0.004184
weight of 2 is -8.000000
weight of 3 is 2.000000
used!
weight of 0 is 1.500392
weight of 1 is -0.004165
weight of 2 is -8.000000
weight of 3 is 3.000000
used!
weight of 0 is 0.998666
weight of 1 is -0.016583
weight of 2 is -8.000000
weight of 3 is 2.000000
not used!
weight of 0 is 0.496406
weight of 1 is -0.048881
weight of 2 is -8.177778
weight of 3 is 1.000000
not used!
accept
accept
weight of 0 is -0.005160
weight of 1 is -0.094165
weight of 2 is -9.244444
weight of 3 is 0.000000
not used!
weight of 0 is -0.507389
weight of 1 is -0.137012
weight of 2 is -9.777778
weight of 3 is -1.000000
not used!
weight of 0 is -1.009615
weight of 1 is -0.151152
weight of 2 is -10.666667
weight of 3 is -2.000000
not used!
deny
deny
weight of 0 is -1.511548
weight of 1 is -0.153843
weight of 2 is -11.911111
weight of 3 is -3.000000
not used!
deny
deny
deny
deny
deny
deny
weight of 0 is -1.009822
weight of 1 is -0.139471
weight of 2 is -11.911111
weight of 3 is -2.000000
used!
weight of 0 is -0.508096
weight of 1 is -0.125099
weight of 2 is -11.911111
weight of 3 is -1.000000
used!
deny
deny
weight of 0 is -1.010028
weight of 1 is -0.125195
weight of 2 is -13.155556
weight of 3 is -2.000000
not used!
deny
deny
deny
deny
weight of 0 is -1.511823
weight of 1 is -0.136312
weight of 2 is -13.333333
weight of 3 is -3.000000
not used!
weight of 0 is -2.013618
weight of 1 is -0.136332
weight of 2 is -13.422222
weight of 3 is -4.000000
not used!
weight of 0 is -2.515412
weight of 1 is -0.136344
weight of 2 is -14.044444
weight of 3 is -5.000000
not used!
deny
deny
weight of 0 is -2.013686
weight of 1 is -0.136325
weight of 2 is -14.044444
weight of 3 is -4.000000
used!
weight of 0 is -1.511960
weight of 1 is -0.136306
weight of 2 is -14.044444
weight of 3 is -3.000000
used!
deny
deny
weight of 0 is -1.010234
weight of 1 is -0.136288
weight of 2 is -14.044444
weight of 3 is -2.000000
used!
weight of 0 is -0.508508
weight of 1 is -0.136269
weight of 2 is -14.044444
weight of 3 is -1.000000
used!
deny
deny
weight of 0 is -1.010234
weight of 1 is -0.150803
weight of 2 is -14.044444
weight of 3 is -2.000000
not used!
deny
deny
deny
deny
weight of 0 is -0.508508
weight of 1 is -0.129818
weight of 2 is -14.044444
weight of 3 is -1.000000
used!
weight of 0 is -0.006782
weight of 1 is -0.108832
weight of 2 is -14.044444
weight of 3 is 0.000000
used!
weight of 0 is -0.508508
weight of 1 is -0.108870
weight of 2 is -14.044444
weight of 3 is -1.000000
not used!
deny
deny
weight of 0 is -0.006782
weight of 1 is -0.100867
weight of 2 is -14.044444
weight of 3 is 0.000000
used!
weight of 0 is 0.494944
weight of 1 is -0.092863
weight of 2 is -14.044444
weight of 3 is 1.000000
used!
weight of 0 is -0.006990
weight of 1 is -0.108889
weight of 2 is -14.044444
weight of 3 is 0.000000
not used!
deny
deny
accept
accept
weight of 0 is -0.508884
weight of 1 is -0.111169
weight of 2 is -14.933333
weight of 3 is -1.000000
not used!
deny
deny
weight of 0 is -0.007158
weight of 1 is -0.111150
weight of 2 is -14.933333
weight of 3 is 0.000000
used!
weight of 0 is 0.494568
weight of 1 is -0.111131
weight of 2 is -14.933333
weight of 3 is 1.000000
used!
accept
accept
weight of 0 is -0.007368
weight of 1 is -0.128226
weight of 2 is -16.177778
weight of 3 is 0.000000
not used!
accept
accept
weight of 0 is 0.494358
weight of 1 is -0.107221
weight of 2 is -16.177778
weight of 3 is 1.000000
used!
weight of 0 is 0.996084
weight of 1 is -0.086217
weight of 2 is -16.177778
weight of 3 is 2.000000
used!
weight of 0 is 0.494358
weight of 1 is -0.103255
weight of 2 is -16.177778
weight of 3 is 1.000000
not used!
deny
deny
weight of 0 is -0.007533
weight of 1 is -0.116669
weight of 2 is -16.177778
weight of 3 is 0.000000
not used!
weight of 0 is -0.509259
weight of 1 is -0.130027
weight of 2 is -16.177778
weight of 3 is -1.000000
not used!
deny
deny
deny
deny
deny
deny
deny
deny
weight of 0 is -1.011544
weight of 1 is -0.175565
weight of 2 is -17.422222
weight of 3 is -2.000000
not used!
deny
deny
deny
deny
weight of 0 is -1.513270
weight of 1 is -0.221046
weight of 2 is -17.422222
weight of 3 is -3.000000
not used!
deny
deny
weight of 0 is -2.015555
weight of 1 is -0.266488
weight of 2 is -18.488889
weight of 3 is -4.000000
not used!
deny
deny
weight of 0 is -1.513829
weight of 1 is -0.256982
weight of 2 is -18.488889
weight of 3 is -3.000000
used!
weight of 0 is -1.012103
weight of 1 is -0.247475
weight of 2 is -18.488889
weight of 3 is -2.000000
used!
weight of 0 is -1.514387
weight of 1 is -0.247480
weight of 2 is -18.488889
weight of 3 is -3.000000
not used!
weight of 0 is -2.016113
weight of 1 is -0.267564
weight of 2 is -18.488889
weight of 3 is -4.000000
not used!
deny
deny
deny
deny
weight of 0 is -2.518341
weight of 1 is -0.267592
weight of 2 is -18.488889
weight of 3 is -5.000000
not used!
deny
deny
weight of 0 is -3.020067
weight of 1 is -0.308398
weight of 2 is -18.488889
weight of 3 is -6.000000
not used!
deny
deny
weight of 0 is -3.521793
weight of 1 is -0.335132
weight of 2 is -18.488889
weight of 3 is -7.000000
not used!
deny
deny
weight of 0 is -3.020067
weight of 1 is -0.319727
weight of 2 is -18.488889
weight of 3 is -6.000000
used!
weight of 0 is -2.518341
weight of 1 is -0.304321
weight of 2 is -18.488889
weight of 3 is -5.000000
used!
deny
deny
deny
deny
weight of 0 is -2.016615
weight of 1 is -0.300336
weight of 2 is -18.488889
weight of 3 is -4.000000
used!
weight of 0 is -1.514889
weight of 1 is -0.296351
weight of 2 is -18.488889
weight of 3 is -3.000000
used!
weight of 0 is -2.017173
weight of 1 is -0.341654
weight of 2 is -19.022222
weight of 3 is -4.000000
not used!
deny
deny
weight of 0 is -1.515447
weight of 1 is -0.323994
weight of 2 is -19.022222
weight of 3 is -3.000000
used!
weight of 0 is -1.013721
weight of 1 is -0.306334
weight of 2 is -19.022222
weight of 3 is -2.000000
used!
deny
deny
deny
deny
weight of 0 is -0.511995
weight of 1 is -0.288655
weight of 2 is -19.022222
weight of 3 is -1.000000
used!
weight of 0 is -0.010270
weight of 1 is -0.270976
weight of 2 is -19.022222
weight of 3 is 0.000000
used!
accept
accept
weight of 0 is 0.491456
weight of 1 is -0.267073
weight of 2 is -19.022222
weight of 3 is 1.000000
used!
weight of 0 is 0.993182
weight of 1 is -0.263170
weight of 2 is -19.022222
weight of 3 is 2.000000
used!
accept
accept
weight of 0 is 0.491033
weight of 1 is -0.297680
weight of 2 is -20.266667
weight of 3 is 1.000000
not used!
weight of 0 is -0.010739
weight of 1 is -0.310699
weight of 2 is -21.555556
weight of 3 is 0.000000
not used!
accept
accept
weight of 0 is -0.512464
weight of 1 is -0.314342
weight of 2 is -21.555556
weight of 3 is -1.000000
not used!
warn: ignoring syscall access(...)
weight of 0 is -1.014614
weight of 1 is -0.330985
weight of 2 is -22.800000
weight of 3 is -2.000000
not used!
deny
deny
deny
deny
weight of 0 is -1.516340
weight of 1 is -0.347609
weight of 2 is -22.800000
weight of 3 is -3.000000
not used!
deny
deny
weight of 0 is -1.014614
weight of 1 is -0.321796
weight of 2 is -22.800000
weight of 3 is -2.000000
used!
weight of 0 is -0.512888
weight of 1 is -0.295982
weight of 2 is -22.800000
weight of 3 is -1.000000
used!
deny
deny
weight of 0 is -1.014614
weight of 1 is -0.311932
weight of 2 is -22.800000
weight of 3 is -2.000000
not used!
deny
deny
deny
deny
deny
deny
weight of 0 is -0.512888
weight of 1 is -0.311913
weight of 2 is -22.800000
weight of 3 is -1.000000
used!
weight of 0 is -0.011162
weight of 1 is -0.311895
weight of 2 is -22.800000
weight of 3 is 0.000000
used!
weight of 0 is -0.512888
weight of 1 is -0.340339
weight of 2 is -22.800000
weight of 3 is -1.000000
not used!
deny
deny
deny
deny
weight of 0 is -1.014613
weight of 1 is -0.340395
weight of 2 is -22.800000
weight of 3 is -2.000000
not used!
deny
deny
deny
deny
weight of 0 is -0.512888
weight of 1 is -0.328860
weight of 2 is -22.800000
weight of 3 is -1.000000
used!
weight of 0 is -0.011162
weight of 1 is -0.317324
weight of 2 is -22.800000
weight of 3 is 0.000000
used!
accept
accept
weight of 0 is 0.490564
weight of 1 is -0.317305
weight of 2 is -22.800000
weight of 3 is 1.000000
used!
weight of 0 is 0.992290
weight of 1 is -0.317287
weight of 2 is -22.800000
weight of 3 is 2.000000
used!
accept
accept
accept
accept
accept
accept
weight of 0 is 0.490212
weight of 1 is -0.318873
weight of 2 is -22.800000
weight of 3 is 1.000000
not used!
accept
accept
weight of 0 is -0.011514
weight of 1 is -0.347524
weight of 2 is -22.800000
weight of 3 is 0.000000
not used!
accept
accept
weight of 0 is -0.513240
weight of 1 is -0.347542
weight of 2 is -22.800000
weight of 3 is -1.000000
not used!
weight of 0 is -1.014966
weight of 1 is -0.378036
weight of 2 is -22.800000
weight of 3 is -2.000000
not used!
deny
deny
weight of 0 is -1.517065
weight of 1 is -0.408587
weight of 2 is -22.977778
weight of 3 is -3.000000
not used!
deny
deny
weight of 0 is -2.019301
weight of 1 is -0.409589
weight of 2 is -24.133333
weight of 3 is -4.000000
not used!
deny
deny
weight of 0 is -2.521398
weight of 1 is -0.410459
weight of 2 is -24.311111
weight of 3 is -5.000000
not used!
deny
deny
weight of 0 is -2.019673
weight of 1 is -0.393665
weight of 2 is -24.311111
weight of 3 is -4.000000
used!
weight of 0 is -1.517947
weight of 1 is -0.376872
weight of 2 is -24.311111
weight of 3 is -3.000000
used!
deny
deny
deny
deny
weight of 0 is -1.016221
weight of 1 is -0.376853
weight of 2 is -24.311111
weight of 3 is -2.000000
used!
weight of 0 is -0.514495
weight of 1 is -0.376834
weight of 2 is -24.311111
weight of 3 is -1.000000
used!
weight of 0 is -1.016723
weight of 1 is -0.417692
weight of 2 is -25.377778
weight of 3 is -2.000000
not used!
deny
deny
weight of 0 is -0.514997
weight of 1 is -0.417673
weight of 2 is -25.377778
weight of 3 is -1.000000
used!
weight of 0 is -0.013271
weight of 1 is -0.417654
weight of 2 is -25.377778
weight of 3 is 0.000000
used!
accept
accept
weight of 0 is 0.488455
weight of 1 is 0.391352
weight of 2 is -25.377778
weight of 3 is 1.000000
used!
weight of 0 is 0.990181
weight of 1 is 1.200358
weight of 2 is -25.377778
weight of 3 is 2.000000
used!
accept
accept
accept
accept
deny
deny
weight of 0 is 0.498067
weight of 1 is 0.417959
weight of 2 is -26.622222
weight of 3 is 1.000000
not used!
accept
accept
weight of 0 is -0.003658
weight of 1 is -0.364421
weight of 2 is -26.622222
weight of 3 is 0.000000
not used!
weight of 0 is -0.495779
weight of 1 is -1.146883
weight of 2 is -27.333333
weight of 3 is -1.000000
not used!
weight of 0 is -0.987892
weight of 1 is -1.146895
weight of 2 is -27.511111
weight of 3 is -2.000000
not used!
weight of 0 is -1.480006
weight of 1 is -1.146911
weight of 2 is -27.511111
weight of 3 is -3.000000
not used!
deny
deny
deny
deny
deny
deny
deny
deny
weight of 0 is -1.981732
weight of 1 is -1.175092
weight of 2 is -27.511111
weight of 3 is -4.000000
not used!
deny
deny
weight of 0 is -2.483083
weight of 1 is -1.205543
weight of 2 is -27.777778
weight of 3 is -5.000000
not used!
deny
deny
weight of 0 is -1.981358
weight of 1 is -1.200151
weight of 2 is -27.777778
weight of 3 is -4.000000
used!
weight of 0 is -1.479632
weight of 1 is -1.194759
weight of 2 is -27.777778
weight of 3 is -3.000000
used!
deny
deny
weight of 0 is -0.977906
weight of 1 is -1.194740
weight of 2 is -27.777778
weight of 3 is -2.000000
used!
weight of 0 is -0.476180
weight of 1 is -1.194721
weight of 2 is -27.777778
weight of 3 is -1.000000
used!
deny
deny
deny
deny
deny
deny
deny
deny
deny
deny
deny
deny
weight of 0 is 0.025546
weight of 1 is -1.167338
weight of 2 is -27.777778
weight of 3 is 0.000000
used!
weight of 0 is 0.527272
weight of 1 is -1.139954
weight of 2 is -27.777778
weight of 3 is 1.000000
used!
weight of 0 is 0.025656
weight of 1 is -1.148951
weight of 2 is -27.955556
weight of 3 is 0.000000
not used!
accept
accept
weight of 0 is -0.476070
weight of 1 is -1.158849
weight of 2 is -27.955556
weight of 3 is -1.000000
not used!
deny
deny
deny
deny
deny
deny
deny
deny
weight of 0 is -0.977686
weight of 1 is -1.168692
weight of 2 is -28.133333
weight of 3 is -2.000000
not used!
deny
deny
weight of 0 is -0.475961
weight of 1 is -1.131044
weight of 2 is -28.133333
weight of 3 is -1.000000
used!
weight of 0 is 0.025766
weight of 1 is -1.093397
weight of 2 is -28.133333
weight of 3 is 0.000000
used!
accept
accept
weight of 0 is -0.476460
weight of 1 is -1.142944
weight of 2 is -28.666667
weight of 3 is -1.000000
not used!
deny
deny
weight of 0 is 0.025266
weight of 1 is -1.142925
weight of 2 is -28.666667
weight of 3 is 0.000000
used!
weight of 0 is 0.526992
weight of 1 is -1.142906
weight of 2 is -28.666667
weight of 3 is 1.000000
used!
accept
accept
accept
accept
weight of 0 is 0.024889
weight of 1 is -1.183968
weight of 2 is -29.555556
weight of 3 is 0.000000
not used!
weight of 0 is -0.477214
weight of 1 is -1.183990
weight of 2 is -30.711111
weight of 3 is -1.000000
not used!
deny
deny
weight of 0 is -0.979087
weight of 1 is -1.184080
weight of 2 is -31.600000
weight of 3 is -2.000000
not used!
weight of 0 is -1.480813
weight of 1 is -1.214696
weight of 2 is -31.600000
weight of 3 is -3.000000
not used!
deny
deny
weight of 0 is -1.982919
weight of 1 is -1.245632
weight of 2 is -32.511111
weight of 3 is -4.000000
not used!
deny
deny
weight of 0 is -1.481193
weight of 1 is -0.457261
weight of 2 is -32.511111
weight of 3 is -3.000000
used!
weight of 0 is -0.979467
weight of 1 is 0.331110
weight of 2 is -32.511111
weight of 3 is -2.000000
used!
weight of 0 is -1.481718
weight of 1 is 0.288409
weight of 2 is -33.755556
weight of 3 is -3.000000
not used!
deny
deny
deny
deny
deny
deny
deny
deny
weight of 0 is -1.983443
weight of 1 is 0.287939
weight of 2 is -33.755556
weight of 3 is -4.000000
not used!
deny
deny
weight of 0 is -1.481718
weight of 1 is 0.287995
weight of 2 is -33.755556
weight of 3 is -3.000000
used!
weight of 0 is -0.979992
weight of 1 is 0.288052
weight of 2 is -33.755556
weight of 3 is -2.000000
used!
deny
deny
deny
deny
weight of 0 is -0.478266
weight of 1 is 0.288221
weight of 2 is -33.755556
weight of 3 is -1.000000
used!
weight of 0 is 0.023460
weight of 1 is 0.288390
weight of 2 is -33.755556
weight of 3 is 0.000000
used!
accept
accept
accept
accept
weight of 0 is 0.525186
weight of 1 is 0.288409
weight of 2 is -33.755556
weight of 3 is 1.000000
used!
weight of 0 is 1.026912
weight of 1 is 0.288427
weight of 2 is -33.755556
weight of 3 is 2.000000
used!
accept
accept
deny
deny
deny
deny
accept
accept
weight of 0 is 0.524686
weight of 1 is 0.247767
weight of 2 is -34.111111
weight of 3 is 1.000000
not used!
deny
deny
deny
deny
weight of 0 is 0.022462
weight of 1 is 0.207182
weight of 2 is -34.466667
weight of 3 is 0.000000
not used!
accept
accept
accept
accept
weight of 0 is -0.479264
weight of 1 is 0.166653
weight of 2 is -34.466667
weight of 3 is -1.000000
not used!
deny
deny
deny
deny
deny
deny
deny
deny
deny
deny
deny
deny
deny
deny
deny
deny
deny
deny
deny
deny
weight of 0 is 0.022462
weight of 1 is 0.184486
weight of 2 is -34.466667
weight of 3 is 0.000000
used!
weight of 0 is 0.524188
weight of 1 is 0.202318
weight of 2 is -34.466667
weight of 3 is 1.000000
used!
accept
accept
weight of 0 is 1.025914
weight of 1 is 0.202337
weight of 2 is -34.466667
weight of 3 is 2.000000
used!
weight of 0 is 1.527640
weight of 1 is 0.202356
weight of 2 is -34.466667
weight of 3 is 3.000000
used!
deny
deny
accept
accept
weight of 0 is 2.029366
weight of 1 is 0.202375
weight of 2 is -34.466667
weight of 3 is 4.000000
used!
weight of 0 is 2.531092
weight of 1 is 0.202393
weight of 2 is -34.466667
weight of 3 is 5.000000
used!
deny
deny
accept
accept
accept
accept
accept
accept
accept
accept
accept
accept
accept
accept
deny
deny
accept
accept
deny
deny
accept
accept
deny
deny
deny
deny
deny
deny
accept
accept
deny
deny
deny
deny
deny
deny
accept
accept
deny
deny
deny
deny
deny
deny
deny
deny
weight of 0 is 2.029366
weight of 1 is 0.202299
weight of 2 is -34.466667
weight of 3 is 4.000000
not used!
deny
deny
weight of 0 is 2.531422
weight of 1 is 0.208828
weight of 2 is -34.022222
weight of 3 is 5.000000
used!
weight of 0 is 3.033478
weight of 1 is 0.215357
weight of 2 is -33.577778
weight of 3 is 6.000000
used!
accept
accept
accept
accept
accept
accept
accept
accept
accept
accept
accept
accept
deny
deny
weight of 0 is 3.535557
weight of 1 is 0.227356
weight of 2 is -32.511111
weight of 3 is 7.000000
used!
weight of 0 is 4.037636
weight of 1 is 0.239355
weight of 2 is -31.444444
weight of 3 is 8.000000
used!
accept
accept
accept
accept
accept
accept
weight of 0 is 3.535911
weight of 1 is 0.213879
weight of 2 is -31.444444
weight of 3 is 7.000000
not used!
deny
deny
accept
accept
accept
accept
accept
accept
accept
accept
accept
accept
weight of 0 is 3.034185
weight of 1 is 0.212978
weight of 2 is -31.444444
weight of 3 is 6.000000
not used!
deny
deny
weight of 0 is 3.536369
weight of 1 is 0.250334
weight of 2 is -30.911111
weight of 3 is 7.000000
used!
weight of 0 is 4.038553
weight of 1 is 0.287690
weight of 2 is -30.377778
weight of 3 is 8.000000
used!
deny
deny
deny
deny
weight of 0 is 4.540785
weight of 1 is 0.287759
weight of 2 is -29.311111
weight of 3 is 9.000000
used!
weight of 0 is 5.043018
weight of 1 is 0.287827
weight of 2 is -28.244444
weight of 3 is 10.000000
used!
accept
accept
deny
deny
weight of 0 is 5.545251
weight of 1 is 0.287844
weight of 2 is -27.355556
weight of 3 is 11.000000
used!
weight of 0 is 6.047485
weight of 1 is 0.287860
weight of 2 is -26.466667
weight of 3 is 12.000000
used!
weight of 0 is 5.545759
weight of 1 is 0.280514
weight of 2 is -26.466667
weight of 3 is 11.000000
not used!
accept
accept
deny
deny
accept
accept
accept
accept
weight of 0 is 6.047992
weight of 1 is 0.280531
weight of 2 is -25.755556
weight of 3 is 12.000000
used!
weight of 0 is 6.550225
weight of 1 is 0.280547
weight of 2 is -25.044444
weight of 3 is 13.000000
used!
accept
accept
weight of 0 is 6.048500
weight of 1 is 0.280528
weight of 2 is -25.044444
weight of 3 is 12.000000
not used!
accept
accept
weight of 0 is 5.546774
weight of 1 is 0.263608
weight of 2 is -25.044444
weight of 3 is 11.000000
not used!
accept
accept
accept
accept
deny
deny
weight of 0 is 5.045048
weight of 1 is 0.263439
weight of 2 is -25.044444
weight of 3 is 10.000000
not used!
deny
deny
deny
deny
weight of 0 is 4.553263
weight of 1 is -0.524669
weight of 2 is -25.044444
weight of 3 is 9.000000
not used!
deny
deny
deny
deny
accept
accept
weight of 0 is 5.055424
weight of 1 is -0.524646
weight of 2 is -24.066667
weight of 3 is 10.000000
used!
weight of 0 is 5.557586
weight of 1 is -0.524624
weight of 2 is -23.088889
weight of 3 is 11.000000
used!
deny
deny
weight of 0 is 6.059747
weight of 1 is -0.522994
weight of 2 is -22.377778
weight of 3 is 12.000000
used!
weight of 0 is 6.561909
weight of 1 is -0.521364
weight of 2 is -21.666667
weight of 3 is 13.000000
used!
accept
accept
weight of 0 is 6.060183
weight of 1 is -0.521477
weight of 2 is -21.666667
weight of 3 is 12.000000
not used!
accept
accept
accept
accept
accept
accept
accept
accept
weight of 0 is 5.558457
weight of 1 is -0.538238
weight of 2 is -21.666667
weight of 3 is 11.000000
not used!
weight of 0 is 5.056732
weight of 1 is -0.563601
weight of 2 is -21.666667
weight of 3 is 10.000000
not used!
deny
deny
accept
accept
accept
accept
accept
accept
deny
deny
weight of 0 is 5.558892
weight of 1 is -0.563545
weight of 2 is -20.866667
weight of 3 is 11.000000
used!
weight of 0 is 6.061053
weight of 1 is -0.563490
weight of 2 is -20.066667
weight of 3 is 12.000000
used!
accept
accept
deny
deny
deny
deny
accept
accept
accept
accept
weight of 0 is 5.559327
weight of 1 is -0.567203
weight of 2 is -20.066667
weight of 3 is 11.000000
not used!
warn: ignoring syscall mprotect(...)
accept
accept
weight of 0 is 5.057601
weight of 1 is -0.591783
weight of 2 is -20.066667
weight of 3 is 10.000000
not used!
weight of 0 is 4.555875
weight of 1 is -0.591802
weight of 2 is -20.066667
weight of 3 is 9.000000
not used!
deny
deny
accept
accept
weight of 0 is 4.054149
weight of 1 is -0.591915
weight of 2 is -20.066667
weight of 3 is 8.000000
not used!
accept
accept
accept
accept
weight of 0 is 3.552378
weight of 1 is -0.595372
weight of 2 is -20.066667
weight of 3 is 7.000000
not used!
accept
accept
accept
accept
accept
accept
accept
accept
accept
accept
weight of 0 is 3.050652
weight of 1 is -0.630101
weight of 2 is -20.066667
weight of 3 is 6.000000
not used!
deny
deny
weight of 0 is 2.548601
weight of 1 is -0.636645
weight of 2 is -20.155556
weight of 3 is 5.000000
not used!
accept
accept
accept
accept
accept
accept
accept
accept
accept
accept
weight of 0 is 2.046545
weight of 1 is -0.636666
weight of 2 is -20.244444
weight of 3 is 4.000000
not used!
weight of 0 is 1.544819
weight of 1 is -0.636891
weight of 2 is -20.244444
weight of 3 is 3.000000
not used!
accept
accept
deny
deny
accept
accept
accept
accept
accept
accept
accept
accept
accept
accept
weight of 0 is 1.043063
weight of 1 is -0.664508
weight of 2 is -20.244444
weight of 3 is 2.000000
not used!
weight of 0 is 0.541337
weight of 1 is -0.692295
weight of 2 is -20.244444
weight of 3 is 1.000000
not used!
deny
deny
weight of 0 is 0.039105
weight of 1 is -0.733497
weight of 2 is -20.377778
weight of 3 is 0.000000
not used!
weight of 0 is -0.462621
weight of 1 is -0.774745
weight of 2 is -20.377778
weight of 3 is -1.000000
not used!
weight of 0 is -0.964538
weight of 1 is -0.784913
weight of 2 is -20.377778
weight of 3 is -2.000000
not used!
weight of 0 is -1.466458
weight of 1 is -0.785233
weight of 2 is -20.377778
weight of 3 is -3.000000
not used!
deny
deny
weight of 0 is -1.968184
weight of 1 is -0.800864
weight of 2 is -20.377778
weight of 3 is -4.000000
not used!
deny
deny
deny
deny
deny
deny
deny
deny
deny
deny
deny
deny
deny
deny
deny
deny
deny
deny
deny
deny
deny
deny
deny
deny
deny
deny
weight of 0 is -1.466111
weight of 1 is -0.792757
weight of 2 is -19.933333
weight of 3 is -3.000000
used!
weight of 0 is -0.964036
weight of 1 is -0.784650
weight of 2 is -19.488889
weight of 3 is -2.000000
used!
deny
deny
deny
deny
deny
deny
weight of 0 is -0.461858
weight of 1 is -0.776282
weight of 2 is -18.466667
weight of 3 is -1.000000
used!
weight of 0 is 0.040320
weight of 1 is -0.767914
weight of 2 is -17.444444
weight of 3 is 0.000000
used!
deny
deny
deny
deny
deny
deny
weight of 0 is -0.461841
weight of 1 is -0.767939
weight of 2 is -17.800000
weight of 3 is -1.000000
not used!
weight of 0 is -0.963775
weight of 1 is -0.768038
weight of 2 is -17.800000
weight of 3 is -2.000000
not used!
weight of 0 is -1.465501
weight of 1 is -0.809764
weight of 2 is -17.800000
weight of 3 is -3.000000
not used!
weight of 0 is -1.967226
weight of 1 is -0.849455
weight of 2 is -17.800000
weight of 3 is -4.000000
not used!
weight of 0 is -2.469440
weight of 1 is -0.889152
weight of 2 is -17.800000
weight of 3 is -5.000000
not used!
weight of 0 is -2.971166
weight of 1 is -0.911903
weight of 2 is -17.800000
weight of 3 is -6.000000
not used!
deny
deny
deny
deny
deny
deny
deny
deny
deny
deny
deny
deny
deny
deny
weight of 0 is -2.469000
weight of 1 is -0.873186
weight of 2 is -16.644444
weight of 3 is -5.000000
used!
weight of 0 is -1.966834
weight of 1 is -0.834469
weight of 2 is -15.488889
weight of 3 is -4.000000
used!
weight of 0 is -2.480384
weight of 1 is -1.821277
weight of 2 is -15.933333
weight of 3 is -5.000000
not used!
deny
deny
weight of 0 is -1.978218
weight of 1 is -1.818214
weight of 2 is -15.044444
weight of 3 is -4.000000
used!
weight of 0 is -1.476052
weight of 1 is -1.815150
weight of 2 is -14.155556
weight of 3 is -3.000000
used!
deny
deny
weight of 0 is -1.989899
weight of 1 is -2.760768
weight of 2 is -14.155556
weight of 3 is -4.000000
not used!
deny
deny
deny
deny
weight of 0 is -1.487734
weight of 1 is -2.760713
weight of 2 is -13.177778
weight of 3 is -3.000000
used!
weight of 0 is -0.985569
weight of 1 is -2.760658
weight of 2 is -12.200000
weight of 3 is -2.000000
used!
deny
deny
weight of 0 is -0.483403
weight of 1 is -2.721930
weight of 2 is -11.666667
weight of 3 is -1.000000
used!
weight of 0 is 0.018763
weight of 1 is -2.683202
weight of 2 is -11.133333
weight of 3 is 0.000000
used!
deny
deny
deny
deny
weight of 0 is -0.483467
weight of 1 is -2.683231
weight of 2 is -11.133333
weight of 3 is -1.000000
not used!
warn: ignoring syscall mprotect(...)
weight of 0 is -0.997314
weight of 1 is -3.628869
weight of 2 is -11.133333
weight of 3 is -2.000000
not used!
weight of 0 is -1.511162
weight of 1 is -3.628888
weight of 2 is -11.133333
weight of 3 is -3.000000
not used!
weight of 0 is -2.012888
weight of 1 is -3.629151
weight of 2 is -11.133333
weight of 3 is -4.000000
not used!
deny
deny
deny
deny
deny
deny
weight of 0 is -1.484869
weight of 1 is -1.503998
weight of 2 is -10.422222
weight of 3 is -3.000000
used!
weight of 0 is -0.956850
weight of 1 is 0.621156
weight of 2 is -9.711111
weight of 3 is -2.000000
used!
deny
deny
weight of 0 is -0.428831
weight of 1 is 0.621166
weight of 2 is -9.711111
weight of 3 is -1.000000
used!
weight of 0 is 0.099188
weight of 1 is 0.621175
weight of 2 is -9.711111
weight of 3 is 0.000000
used!
accept
accept
weight of 0 is 0.627207
weight of 1 is 0.621194
weight of 2 is -9.711111
weight of 3 is 1.000000
used!
weight of 0 is 1.155227
weight of 1 is 0.621213
weight of 2 is -9.711111
weight of 3 is 2.000000
used!
accept
accept
accept
accept
accept
accept
accept
accept
weight of 0 is 0.653501
weight of 1 is 0.561577
weight of 2 is -9.711111
weight of 3 is 1.000000
not used!
accept
accept
accept
accept
accept
accept
weight of 0 is 0.151775
weight of 1 is 0.561013
weight of 2 is -9.711111
weight of 3 is 0.000000
not used!
accept
accept
weight of 0 is -0.349951
weight of 1 is 0.553499
weight of 2 is -9.711111
weight of 3 is -1.000000
not used!
deny
deny
weight of 0 is -0.851677
weight of 1 is 0.553442
weight of 2 is -9.711111
weight of 3 is -2.000000
not used!
deny
deny
deny
deny
deny
deny
deny
deny
deny
deny
deny
deny
deny
deny
weight of 0 is -0.323386
weight of 1 is 0.556148
weight of 2 is -9.711111
weight of 3 is -1.000000
used!
weight of 0 is 0.204906
weight of 1 is 0.558853
weight of 2 is -9.711111
weight of 3 is 0.000000
used!
accept
accept
weight of 0 is 0.733197
weight of 1 is 2.679857
weight of 2 is -9.711111
weight of 3 is 1.000000
used!
weight of 0 is 1.261489
weight of 1 is 4.800861
weight of 2 is -9.711111
weight of 3 is 2.000000
used!
accept
accept
weight of 0 is 1.763722
weight of 1 is 6.921825
weight of 2 is -9.177778
weight of 3 is 3.000000
used!
weight of 0 is 2.265956
weight of 1 is 9.042790
weight of 2 is -8.644444
weight of 3 is 4.000000
used!
accept
accept
accept
accept
accept
accept
accept
accept
accept
accept
accept
accept
accept
accept
accept
accept
accept
accept
deny
deny
deny
deny
accept
accept
deny
deny
accept
accept
accept
accept
accept
accept
accept
accept
accept
accept
accept
accept
accept
accept
accept
accept
accept
accept
accept
accept
accept
accept
accept
accept
accept
accept
deny
deny
accept
accept
accept
accept
accept
accept
accept
accept
accept
accept
accept
accept
accept
accept
accept
accept
accept
accept
accept
accept
accept
accept
accept
accept
accept
accept
accept
accept
accept
accept
accept
accept
accept
accept
accept
accept
accept
accept
accept
accept
accept
accept
accept
accept
accept
accept
accept
accept
accept
accept
weight of 0 is 1.737930
weight of 1 is 9.042733
weight of 2 is -8.644444
weight of 3 is 3.000000
not used!
deny
deny
accept
accept
accept
accept
weight of 0 is 1.235696
weight of 1 is 6.921745
weight of 2 is -8.822222
weight of 3 is 2.000000
not used!
weight of 0 is 0.707404
weight of 1 is 4.800701
weight of 2 is -8.822222
weight of 3 is 1.000000
not used!
weight of 0 is 0.179111
weight of 1 is 4.800683
weight of 2 is -8.822222
weight of 3 is 0.000000
not used!
deny
deny
accept
accept
deny
deny
weight of 0 is -0.322615
weight of 1 is 2.638567
weight of 2 is -8.822222
weight of 3 is -1.000000
not used!
deny
deny
weight of 0 is -0.836412
weight of 1 is 1.650772
weight of 2 is -10.066667
weight of 3 is -2.000000
not used!
deny
deny
weight of 0 is -1.350209
weight of 1 is 1.650770
weight of 2 is -10.066667
weight of 3 is -3.000000
not used!
deny
deny
deny
deny
deny
deny
deny
deny
deny
deny
deny
deny
deny
deny
deny
deny
weight of 0 is -0.821967
weight of 1 is 1.650784
weight of 2 is -8.733333
weight of 3 is -2.000000
used!
weight of 0 is -0.293725
weight of 1 is 1.650798
weight of 2 is -7.400000
weight of 3 is -1.000000
used!
deny
deny
weight of 0 is 0.234517
weight of 1 is 2.806859
weight of 2 is -6.422222
weight of 3 is 0.000000
used!
weight of 0 is 0.762759
weight of 1 is 3.962921
weight of 2 is -5.444444
weight of 3 is 1.000000
used!
accept
accept
weight of 0 is 1.291001
weight of 1 is 3.963073
weight of 2 is -4.377778
weight of 3 is 2.000000
used!
weight of 0 is 1.819243
weight of 1 is 3.963226
weight of 2 is -3.311111
weight of 3 is 3.000000
used!
accept
accept
accept
accept
weight of 0 is 2.347487
weight of 1 is 3.963230
weight of 2 is -2.066667
weight of 3 is 4.000000
used!
weight of 0 is 2.875732
weight of 1 is 3.963233
weight of 2 is -0.822222
weight of 3 is 5.000000
used!
accept
accept
accept
accept
accept
accept
accept
accept
accept
accept
accept
accept
weight of 0 is 2.374006
weight of 1 is 3.962820
weight of 2 is -0.822222
weight of 3 is 4.000000
not used!
accept
accept
accept
accept
accept
accept
accept
accept
accept
accept
accept
accept
accept
accept
weight of 0 is 1.871776
weight of 1 is 3.962778
weight of 2 is -1.177778
weight of 3 is 3.000000
not used!
accept
accept
accept
accept
accept
accept
accept
accept
accept
accept
accept
accept
weight of 0 is 1.357865
weight of 1 is 2.806787
weight of 2 is -1.933333
weight of 3 is 2.000000
not used!
accept
accept
accept
accept
weight of 0 is 0.856140
weight of 1 is 2.806731
weight of 2 is -1.933333
weight of 3 is 1.000000
not used!
accept
accept
accept
accept
accept
accept
weight of 0 is 0.354414
weight of 1 is 0.644616
weight of 2 is -1.933333
weight of 3 is 0.000000
not used!
accept
accept
accept
accept
accept
accept
weight of 0 is -0.147312
weight of 1 is 0.644033
weight of 2 is -1.933333
weight of 3 is -1.000000
not used!
weight of 0 is -0.649038
weight of 1 is 0.643996
weight of 2 is -1.933333
weight of 3 is -2.000000
not used!
weight of 0 is -1.150764
weight of 1 is 0.643714
weight of 2 is -1.933333
weight of 3 is -3.000000
not used!
deny
deny
deny
deny
weight of 0 is -1.652490
weight of 1 is 0.637552
weight of 2 is -1.933333
weight of 3 is -4.000000
not used!
weight of 0 is -2.154684
weight of 1 is 0.637549
weight of 2 is -1.933333
weight of 3 is -5.000000
not used!
deny
deny
weight of 0 is -1.652958
weight of 1 is 0.645853
weight of 2 is -1.933333
weight of 3 is -4.000000
used!
weight of 0 is -1.151232
weight of 1 is 0.654157
weight of 2 is -1.933333
weight of 3 is -3.000000
used!
deny
deny
deny
deny
deny
deny
deny
deny
weight of 0 is -0.649506
weight of 1 is 0.655416
weight of 2 is -1.933333
weight of 3 is -2.000000
used!
weight of 0 is -0.147780
weight of 1 is 0.656675
weight of 2 is -1.933333
weight of 3 is -1.000000
used!
deny
deny
weight of 0 is 0.353946
weight of 1 is 0.656694
weight of 2 is -1.933333
weight of 3 is 0.000000
used!
weight of 0 is 0.855672
weight of 1 is 0.656712
weight of 2 is -1.933333
weight of 3 is 1.000000
used!
accept
accept
weight of 0 is 1.357397
weight of 1 is 0.656731
weight of 2 is -1.933333
weight of 3 is 2.000000
used!
weight of 0 is 1.859124
weight of 1 is 0.656750
weight of 2 is -1.933333
weight of 3 is 3.000000
used!
weight of 0 is 1.357398
weight of 1 is 0.656712
weight of 2 is -1.933333
weight of 3 is 2.000000
not used!
accept
accept
weight of 0 is 1.859123
weight of 1 is 0.656731
weight of 2 is -1.933333
weight of 3 is 3.000000
used!
weight of 0 is 2.360850
weight of 1 is 0.656750
weight of 2 is -1.933333
weight of 3 is 4.000000
used!
accept
accept
accept
accept
weight of 0 is 1.859124
weight of 1 is 0.655980
weight of 2 is -1.933333
weight of 3 is 3.000000
not used!
weight of 0 is 1.357397
weight of 1 is 0.642566
weight of 2 is -1.933333
weight of 3 is 2.000000
not used!
accept
accept
accept
accept
accept
accept
weight of 0 is 0.855671
weight of 1 is 0.625713
weight of 2 is -1.933333
weight of 3 is 1.000000
not used!
accept
accept
accept
accept
accept
accept
accept
accept
accept
accept
accept
accept
accept
accept
accept
accept
weight of 0 is 0.363750
weight of 1 is -0.172380
weight of 2 is -2.644444
weight of 3 is 0.000000
not used!
accept
accept
weight of 0 is -0.137976
weight of 1 is -0.970529
weight of 2 is -2.644444
weight of 3 is -1.000000
not used!
deny
deny
weight of 0 is -0.629892
weight of 1 is -1.769047
weight of 2 is -3.911111
weight of 3 is -2.000000
not used!
deny
deny
deny
deny
deny
deny
weight of 0 is -0.115749
weight of 1 is -1.769012
weight of 2 is -3.733333
weight of 3 is -1.000000
used!
weight of 0 is 0.398393
weight of 1 is -1.768977
weight of 2 is -3.555556
weight of 3 is 0.000000
used!
accept
accept
weight of 0 is 0.912536
weight of 1 is -0.627560
weight of 2 is -3.200000
weight of 3 is 1.000000
used!
weight of 0 is 1.426679
weight of 1 is 0.513856
weight of 2 is -2.844444
weight of 3 is 2.000000
used!
accept
accept
accept
accept
accept
accept
weight of 0 is 0.924953
weight of 1 is 0.513800
weight of 2 is -2.844444
weight of 3 is 1.000000
not used!
accept
accept
weight of 0 is 0.433164
weight of 1 is -0.284113
weight of 2 is -2.933333
weight of 3 is 0.000000
not used!
weight of 0 is -0.069029
weight of 1 is -1.109867
weight of 2 is -4.177778
weight of 3 is -1.000000
not used!
deny
deny
deny
deny
weight of 0 is -0.583090
weight of 1 is -2.086052
weight of 2 is -5.244444
weight of 3 is -2.000000
not used!
deny
deny
weight of 0 is -0.068945
weight of 1 is -0.944800
weight of 2 is -5.244444
weight of 3 is -1.000000
used!
weight of 0 is 0.445200
weight of 1 is 0.196452
weight of 2 is -5.244444
weight of 3 is 0.000000
used!
accept
accept
weight of 0 is 0.959345
weight of 1 is 0.196474
weight of 2 is -5.066667
weight of 3 is 1.000000
used!
weight of 0 is 1.473490
weight of 1 is 0.196495
weight of 2 is -4.888889
weight of 3 is 2.000000
used!
accept
accept
weight of 0 is 1.987636
weight of 1 is 0.196516
weight of 2 is -4.533333
weight of 3 is 3.000000
used!
weight of 0 is 2.501782
weight of 1 is 0.196537
weight of 2 is -4.177778
weight of 3 is 4.000000
used!
accept
accept
accept
accept
accept
accept
accept
accept
accept
accept
accept
accept
accept
accept
accept
accept
accept
accept
accept
accept
accept
accept
accept
accept
weight of 0 is 2.000056
weight of 1 is 0.196481
weight of 2 is -4.177778
weight of 3 is 3.000000
not used!
accept
accept
accept
accept
accept
accept
accept
accept
accept
accept
accept
accept
weight of 0 is 1.498568
weight of 1 is 0.124255
weight of 2 is -4.177778
weight of 3 is 2.000000
not used!
accept
accept
accept
accept
accept
accept
accept
accept
accept
accept
accept
accept
accept
accept
accept
accept
accept
accept
accept
accept
accept
accept
accept
accept
accept
accept
accept
accept
accept
accept
accept
accept
accept
accept
accept
accept
accept
accept
weight of 0 is 0.996842
weight of 1 is -2.050300
weight of 2 is -4.177778
weight of 3 is 1.000000
not used!
accept
accept
accept
accept
accept
accept
accept
accept
deny
deny
weight of 0 is 0.495116
weight of 1 is -2.050357
weight of 2 is -4.177778
weight of 3 is 0.000000
not used!
weight of 0 is -0.007139
weight of 1 is -2.093363
weight of 2 is -4.355556
weight of 3 is -1.000000
not used!
deny
deny
deny
deny
deny
deny
weight of 0 is -0.508864
weight of 1 is -2.093419
weight of 2 is -4.355556
weight of 3 is -2.000000
not used!
deny
deny
weight of 0 is 0.019307
weight of 1 is -0.952717
weight of 2 is -4.355556
weight of 3 is -1.000000
used!
weight of 0 is 0.547478
weight of 1 is 0.187986
weight of 2 is -4.355556
weight of 3 is 0.000000
used!
accept
accept
weight of 0 is 1.061636
weight of 1 is 1.328651
weight of 2 is -4.000000
weight of 3 is 1.000000
used!
weight of 0 is 1.575794
weight of 1 is 2.469316
weight of 2 is -3.644444
weight of 3 is 2.000000
used!
accept
accept
weight of 0 is 2.089953
weight of 1 is 2.469330
weight of 2 is -3.644444
weight of 3 is 3.000000
used!
weight of 0 is 2.604111
weight of 1 is 2.469344
weight of 2 is -3.644444
weight of 3 is 4.000000
used!
accept
accept
weight of 0 is 3.132282
weight of 1 is 2.469363
weight of 2 is -3.644444
weight of 3 is 5.000000
used!
weight of 0 is 3.660454
weight of 1 is 2.469382
weight of 2 is -3.644444
weight of 3 is 6.000000
used!
accept
accept
accept
accept
accept
accept
accept
accept
accept
accept
accept
accept
accept
accept
accept
accept
accept
accept
accept
accept
accept
accept
accept
accept
accept
accept
accept
accept
accept
accept
accept
accept
accept
accept
accept
accept
accept
accept
accept
accept
accept
accept
accept
accept
accept
accept
accept
accept
accept
accept
accept
accept
accept
accept
accept
accept
weight of 0 is 3.132201
weight of 1 is 2.469325
weight of 2 is -3.644444
weight of 3 is 5.000000
not used!
weight of 0 is 2.603949
weight of 1 is 2.469288
weight of 2 is -3.644444
weight of 3 is 4.000000
not used!
accept
accept
weight of 0 is 2.101916
weight of 1 is 0.333580
weight of 2 is -4.533333
weight of 3 is 3.000000
not used!
accept
accept
accept
accept
weight of 0 is 1.600190
weight of 1 is 0.293289
weight of 2 is -4.533333
weight of 3 is 2.000000
not used!
accept
accept
accept
accept
accept
accept
accept
accept
accept
accept
accept
accept
accept
accept
accept
accept
accept
accept
accept
accept
accept
accept
weight of 0 is 1.098464
weight of 1 is 0.285360
weight of 2 is -4.533333
weight of 3 is 1.000000
not used!
accept
accept
accept
accept
accept
accept
accept
accept
accept
accept
accept
accept
accept
accept
accept
accept
accept
accept
accept
accept
accept
accept
accept
accept
accept
accept
accept
accept
weight of 0 is 0.596738
weight of 1 is 0.285041
weight of 2 is -4.533333
weight of 3 is 0.000000
not used!
accept
accept
accept
accept
weight of 0 is 0.095012
weight of 1 is 0.284740
weight of 2 is -4.533333
weight of 3 is -1.000000
not used!
deny
deny
weight of 0 is -0.406714
weight of 1 is 0.284684
weight of 2 is -4.533333
weight of 3 is -2.000000
not used!
deny
deny
deny
deny
weight of 0 is 0.107461
weight of 1 is 1.424602
weight of 2 is -4.355556
weight of 3 is -1.000000
used!
weight of 0 is 0.621636
weight of 1 is 2.564520
weight of 2 is -4.177778
weight of 3 is 0.000000
used!
accept
accept
accept
accept
weight of 0 is 1.135811
weight of 1 is 2.564542
weight of 2 is -3.822222
weight of 3 is 1.000000
used!
weight of 0 is 1.649987
weight of 1 is 2.564563
weight of 2 is -3.466667
weight of 3 is 2.000000
used!
accept
accept
weight of 0 is 1.135848
weight of 1 is 1.422911
weight of 2 is -3.822222
weight of 3 is 1.000000
not used!
accept
accept
accept
accept
weight of 0 is 0.621708
weight of 1 is 1.422897
weight of 2 is -3.822222
weight of 3 is 0.000000
not used!
weight of 0 is 0.107569
weight of 1 is 1.422876
weight of 2 is -4.000000
weight of 3 is -1.000000
not used!
weight of 0 is -0.406571
weight of 1 is 1.422855
weight of 2 is -4.355556
weight of 3 is -2.000000
not used!
weight of 0 is -0.920711
weight of 1 is 1.422841
weight of 2 is -4.355556
weight of 3 is -3.000000
not used!
deny
deny
weight of 0 is -1.434852
weight of 1 is 1.422820
weight of 2 is -4.533333
weight of 3 is -4.000000
not used!
deny
deny
deny
deny
deny
deny
weight of 0 is -0.920674
weight of 1 is 1.422876
weight of 2 is -4.533333
weight of 3 is -3.000000
used!
weight of 0 is -0.406497
weight of 1 is 1.422932
weight of 2 is -4.533333
weight of 3 is -2.000000
used!
deny
deny
weight of 0 is 0.107681
weight of 1 is 2.562736
weight of 2 is -4.355556
weight of 3 is -1.000000
used!
weight of 0 is 0.621859
weight of 1 is 3.702539
weight of 2 is -4.177778
weight of 3 is 0.000000
used!
accept
accept
accept
accept
weight of 0 is 1.136037
weight of 1 is 3.702560
weight of 2 is -3.822222
weight of 3 is 1.000000
used!
weight of 0 is 1.650215
weight of 1 is 3.702581
weight of 2 is -3.466667
weight of 3 is 2.000000
used!
accept
accept
weight of 0 is 1.136074
weight of 1 is 3.702525
weight of 2 is -3.822222
weight of 3 is 1.000000
not used!
accept
accept
weight of 0 is 0.621933
weight of 1 is 3.702511
weight of 2 is -3.822222
weight of 3 is 0.000000
not used!
accept
accept
weight of 0 is 0.107791
weight of 1 is 3.702489
weight of 2 is -4.000000
weight of 3 is -1.000000
not used!
deny
deny
deny
deny
weight of 0 is -0.406351
weight of 1 is 3.702468
weight of 2 is -4.355556
weight of 3 is -2.000000
not used!
deny
deny
weight of 0 is 0.107828
weight of 1 is 3.702489
weight of 2 is -4.177778
weight of 3 is -1.000000
used!
weight of 0 is 0.622008
weight of 1 is 3.702511
weight of 2 is -4.000000
weight of 3 is 0.000000
used!
accept
accept
accept
accept
weight of 0 is 1.136189
weight of 1 is 3.702532
weight of 2 is -3.644444
weight of 3 is 1.000000
used!
weight of 0 is 1.650369
weight of 1 is 3.702553
weight of 2 is -3.288889
weight of 3 is 2.000000
used!
accept
accept
accept
accept
accept
accept
accept
accept
accept
accept
accept
accept
accept
accept
weight of 0 is 1.136225
weight of 1 is 3.702497
weight of 2 is -3.466667
weight of 3 is 1.000000
not used!
weight of 0 is 0.622081
weight of 1 is 3.702475
weight of 2 is -3.822222
weight of 3 is 0.000000
not used!
accept
accept
deny
deny
accept
accept
accept
accept
weight of 0 is 1.136265
weight of 1 is 3.702497
weight of 2 is -3.466667
weight of 3 is 1.000000
used!
weight of 0 is 1.650448
weight of 1 is 3.702518
weight of 2 is -3.111111
weight of 3 is 2.000000
used!
accept
accept
accept
accept
accept
accept
accept
accept
accept
accept
accept
accept
weight of 0 is 1.136303
weight of 1 is 3.702504
weight of 2 is -3.111111
weight of 3 is 1.000000
not used!
accept
accept
accept
accept
accept
accept
accept
accept
accept
accept
weight of 0 is 0.622156
weight of 1 is 2.561329
weight of 2 is -3.288889
weight of 3 is 0.000000
not used!
weight of 0 is 0.108009
weight of 1 is 2.561308
weight of 2 is -3.644444
weight of 3 is -1.000000
not used!
weight of 0 is -0.406138
weight of 1 is 2.561294
weight of 2 is -3.644444
weight of 3 is -2.000000
not used!
deny
deny
weight of 0 is -0.920285
weight of 1 is 2.561273
weight of 2 is -3.822222
weight of 3 is -3.000000
not used!
deny
deny
deny
deny
weight of 0 is -0.406098
weight of 1 is 2.561329
weight of 2 is -3.822222
weight of 3 is -2.000000
used!
weight of 0 is 0.108090
weight of 1 is 2.561385
weight of 2 is -3.822222
weight of 3 is -1.000000
used!
deny
deny
weight of 0 is 0.622277
weight of 1 is 2.561406
weight of 2 is -3.644444
weight of 3 is 0.000000
used!
weight of 0 is 1.136465
weight of 1 is 2.561428
weight of 2 is -3.466667
weight of 3 is 1.000000
used!
accept
accept
weight of 0 is 1.650652
weight of 1 is 2.561449
weight of 2 is -3.111111
weight of 3 is 2.000000
used!
weight of 0 is 2.164840
weight of 1 is 2.561470
weight of 2 is -2.755556
weight of 3 is 3.000000
used!
accept
accept
weight of 0 is 1.650692
weight of 1 is 1.420373
weight of 2 is -3.111111
weight of 3 is 2.000000
not used!
accept
accept
weight of 0 is 2.164880
weight of 1 is 1.420387
weight of 2 is -3.111111
weight of 3 is 3.000000
used!
weight of 0 is 2.679068
weight of 1 is 1.420401
weight of 2 is -3.111111
weight of 3 is 4.000000
used!
accept
accept
weight of 0 is 2.164920
weight of 1 is 1.420387
weight of 2 is -3.111111
weight of 3 is 3.000000
not used!
weight of 0 is 1.650771
weight of 1 is 1.420366
weight of 2 is -3.288889
weight of 3 is 2.000000
not used!
accept
accept
accept
accept
accept
accept
accept
accept
weight of 0 is 1.136621
weight of 1 is 1.420309
weight of 2 is -3.288889
weight of 3 is 1.000000
not used!
accept
accept
weight of 0 is 0.622471
weight of 1 is 1.420288
weight of 2 is -3.466667
weight of 3 is 0.000000
not used!
accept
accept
weight of 0 is 0.108321
weight of 1 is 1.420267
weight of 2 is -3.822222
weight of 3 is -1.000000
not used!
accept
accept
weight of 0 is -0.405830
weight of 1 is 1.420253
weight of 2 is -3.822222
weight of 3 is -2.000000
not used!
deny
deny
deny
deny
weight of 0 is 0.108361
weight of 1 is 2.559436
weight of 2 is -3.644444
weight of 3 is -1.000000
used!
weight of 0 is 0.622552
weight of 1 is 3.698619
weight of 2 is -3.466667
weight of 3 is 0.000000
used!
accept
accept
accept
accept
weight of 0 is 0.108401
weight of 1 is 3.698563
weight of 2 is -3.644444
weight of 3 is -1.000000
not used!
accept
accept
weight of 0 is 0.622592
weight of 1 is 3.698598
weight of 2 is -3.644444
weight of 3 is 0.000000
used!
weight of 0 is 1.136784
weight of 1 is 3.698633
weight of 2 is -3.644444
weight of 3 is 1.000000
used!
weight of 0 is 0.622632
weight of 1 is 3.698612
weight of 2 is -4.000000
weight of 3 is 0.000000
not used!
weight of 0 is 0.108480
weight of 1 is 3.698598
weight of 2 is -4.000000
weight of 3 is -1.000000
not used!
accept
accept
weight of 0 is -0.405672
weight of 1 is 3.698577
weight of 2 is -4.177778
weight of 3 is -2.000000
not used!
accept
accept
deny
deny
weight of 0 is -0.919825
weight of 1 is 3.698521
weight of 2 is -4.533333
weight of 3 is -3.000000
not used!
deny
deny
deny
deny
weight of 0 is -1.433978
weight of 1 is 3.698507
weight of 2 is -4.533333
weight of 3 is -4.000000
not used!
deny
deny
weight of 0 is -1.948132
weight of 1 is 3.698485
weight of 2 is -4.711111
weight of 3 is -5.000000
not used!
deny
deny
weight of 0 is -1.419943
weight of 1 is 4.837770
weight of 2 is -4.000000
weight of 3 is -4.000000
used!
weight of 0 is -0.891754
weight of 1 is 5.977054
weight of 2 is -3.288889
weight of 3 is -3.000000
used!
weight of 0 is -1.405907
weight of 1 is 5.977033
weight of 2 is -3.644444
weight of 3 is -4.000000
not used!
deny
deny
weight of 0 is -0.877718
weight of 1 is 5.977047
weight of 2 is -3.288889
weight of 3 is -3.000000
used!
weight of 0 is -0.349528
weight of 1 is 5.977061
weight of 2 is -2.933333
weight of 3 is -2.000000
used!
accept
accept
weight of 0 is 0.164665
weight of 1 is 7.116303
weight of 2 is -2.577778
weight of 3 is -1.000000
used!
weight of 0 is 0.678858
weight of 1 is 8.255545
weight of 2 is -2.222222
weight of 3 is 0.000000
used!
accept
accept
weight of 0 is 1.207048
weight of 1 is 9.394787
weight of 2 is -2.222222
weight of 3 is 1.000000
used!
weight of 0 is 1.735237
weight of 1 is 10.534028
weight of 2 is -2.222222
weight of 3 is 2.000000
used!
weight of 0 is 1.221083
weight of 1 is 10.533972
weight of 2 is -2.222222
weight of 3 is 1.000000
not used!
accept
accept
weight of 0 is 0.706928
weight of 1 is 10.533951
weight of 2 is -2.400000
weight of 3 is 0.000000
not used!
accept
accept
weight of 0 is 0.192773
weight of 1 is 10.533930
weight of 2 is -2.755556
weight of 3 is -1.000000
not used!
deny
deny
weight of 0 is -0.321383
weight of 1 is 10.533916
weight of 2 is -2.755556
weight of 3 is -2.000000
not used!
accept
accept
accept
accept
deny
deny
weight of 0 is -0.835539
weight of 1 is 9.393192
weight of 2 is -2.933333
weight of 3 is -3.000000
not used!
deny
deny
weight of 0 is -1.349695
weight of 1 is 9.393171
weight of 2 is -3.288889
weight of 3 is -4.000000
not used!
deny
deny
weight of 0 is -0.835500
weight of 1 is 9.393227
weight of 2 is -3.111111
weight of 3 is -3.000000
used!
weight of 0 is -0.321304
weight of 1 is 9.393284
weight of 2 is -2.933333
weight of 3 is -2.000000
used!
weight of 0 is -0.835460
weight of 1 is 9.393269
weight of 2 is -2.933333
weight of 3 is -3.000000
not used!
accept
accept
weight of 0 is -1.349617
weight of 1 is 9.393248
weight of 2 is -3.111111
weight of 3 is -4.000000
not used!
accept
accept
weight of 0 is -0.835421
weight of 1 is 9.393269
weight of 2 is -2.755556
weight of 3 is -3.000000
used!
weight of 0 is -0.321225
weight of 1 is 9.393291
weight of 2 is -2.400000
weight of 3 is -2.000000
used!
deny
deny
weight of 0 is 0.192971
weight of 1 is 9.393305
weight of 2 is -2.400000
weight of 3 is -1.000000
used!
weight of 0 is 0.707167
weight of 1 is 9.393319
weight of 2 is -2.400000
weight of 3 is 0.000000
used!
accept
accept
accept
accept
weight of 0 is 1.221364
weight of 1 is 9.393340
weight of 2 is -2.044444
weight of 3 is 1.000000
used!
weight of 0 is 1.735561
weight of 1 is 9.393361
weight of 2 is -1.688889
weight of 3 is 2.000000
used!
accept
accept
accept
accept
accept
accept
weight of 0 is 1.221403
weight of 1 is 8.252712
weight of 2 is -1.866667
weight of 3 is 1.000000
not used!
accept
accept
weight of 0 is 0.707244
weight of 1 is 8.252691
weight of 2 is -2.222222
weight of 3 is 0.000000
not used!
accept
accept
accept
accept
weight of 0 is 0.193085
weight of 1 is 8.252635
weight of 2 is -2.222222
weight of 3 is -1.000000
not used!
deny
deny
weight of 0 is -0.321075
weight of 1 is 8.252614
weight of 2 is -2.400000
weight of 3 is -2.000000
not used!
deny
deny
accept
accept
weight of 0 is -0.835235
weight of 1 is 8.252593
weight of 2 is -2.755556
weight of 3 is -3.000000
not used!
accept
accept
weight of 0 is -0.321036
weight of 1 is 8.252607
weight of 2 is -2.755556
weight of 3 is -2.000000
used!
weight of 0 is 0.193163
weight of 1 is 8.252621
weight of 2 is -2.755556
weight of 3 is -1.000000
used!
weight of 0 is -0.320997
weight of 1 is 8.252607
weight of 2 is -2.755556
weight of 3 is -2.000000
not used!
deny
deny
weight of 0 is 0.193202
weight of 1 is 8.252628
weight of 2 is -2.577778
weight of 3 is -1.000000
used!
weight of 0 is 0.707401
weight of 1 is 8.252649
weight of 2 is -2.400000
weight of 3 is 0.000000
used!
weight of 0 is 0.179229
weight of 1 is 7.112094
weight of 2 is -2.400000
weight of 3 is -1.000000
not used!
deny
deny
deny
deny
weight of 0 is 0.693428
weight of 1 is 7.112108
weight of 2 is -2.400000
weight of 3 is 0.000000
used!
weight of 0 is 1.207628
weight of 1 is 7.112123
weight of 2 is -2.400000
weight of 3 is 1.000000
used!
accept
accept
weight of 0 is 1.721828
weight of 1 is 7.112144
weight of 2 is -2.222222
weight of 3 is 2.000000
used!
weight of 0 is 2.236028
weight of 1 is 7.112165
weight of 2 is -2.044444
weight of 3 is 3.000000
used!
weight of 0 is 1.721867
weight of 1 is 5.971667
weight of 2 is -2.222222
weight of 3 is 2.000000
not used!
weight of 0 is 1.207706
weight of 1 is 5.971645
weight of 2 is -2.577778
weight of 3 is 1.000000
not used!
accept
accept
weight of 0 is 1.721906
weight of 1 is 5.971667
weight of 2 is -2.222222
weight of 3 is 2.000000
used!
weight of 0 is 2.236106
weight of 1 is 5.971688
weight of 2 is -1.866667
weight of 3 is 3.000000
used!
accept
accept
accept
accept
weight of 0 is 1.721944
weight of 1 is 5.971631
weight of 2 is -1.866667
weight of 3 is 2.000000
not used!
accept
accept
weight of 0 is 1.207781
weight of 1 is 5.971610
weight of 2 is -2.044444
weight of 3 is 1.000000
not used!
accept
accept
weight of 0 is 0.693619
weight of 1 is 5.971589
weight of 2 is -2.400000
weight of 3 is 0.000000
not used!
accept
accept
accept
accept
accept
accept
accept
accept
accept
accept
weight of 0 is 0.179455
weight of 1 is 4.831201
weight of 2 is -2.400000
weight of 3 is -1.000000
not used!
weight of 0 is -0.334709
weight of 1 is 4.831180
weight of 2 is -2.577778
weight of 3 is -2.000000
not used!
weight of 0 is -0.848873
weight of 1 is 4.831159
weight of 2 is -2.933333
weight of 3 is -3.000000
not used!
deny
deny
weight of 0 is -1.363037
weight of 1 is 4.831145
weight of 2 is -2.933333
weight of 3 is -4.000000
not used!
deny
deny
deny
deny
weight of 0 is -0.848834
weight of 1 is 4.831201
weight of 2 is -2.755556
weight of 3 is -3.000000
used!
weight of 0 is -0.334630
weight of 1 is 4.831257
weight of 2 is -2.577778
weight of 3 is -2.000000
used!
weight of 0 is -0.862805
weight of 1 is 3.690884
weight of 2 is -3.111111
weight of 3 is -3.000000
not used!
deny
deny
weight of 0 is -0.348601
weight of 1 is 3.690905
weight of 2 is -2.755556
weight of 3 is -2.000000
used!
weight of 0 is 0.165603
weight of 1 is 3.690926
weight of 2 is -2.400000
weight of 3 is -1.000000
used!
accept
accept
accept
accept
weight of 0 is 0.679806
weight of 1 is 3.690940
weight of 2 is -2.400000
weight of 3 is 0.000000
used!
weight of 0 is 1.194010
weight of 1 is 3.690954
weight of 2 is -2.400000
weight of 3 is 1.000000
used!
weight of 0 is 0.679845
weight of 1 is 2.550587
weight of 2 is -2.577778
weight of 3 is 0.000000
not used!
accept
accept
weight of 0 is 0.165680
weight of 1 is 2.550566
weight of 2 is -2.933333
weight of 3 is -1.000000
not used!
weight of 0 is -0.348486
weight of 1 is 2.550552
weight of 2 is -2.933333
weight of 3 is -2.000000
not used!
deny
deny
weight of 0 is -0.862652
weight of 1 is 2.550531
weight of 2 is -3.111111
weight of 3 is -3.000000
not used!
deny
deny
weight of 0 is -1.376819
weight of 1 is 2.550510
weight of 2 is -3.466667
weight of 3 is -4.000000
not used!
deny
deny
deny
deny
weight of 0 is -0.862613
weight of 1 is 2.550524
weight of 2 is -3.466667
weight of 3 is -3.000000
used!
weight of 0 is -0.348408
weight of 1 is 2.550538
weight of 2 is -3.466667
weight of 3 is -2.000000
used!
accept
accept
accept
accept
weight of 0 is 0.165797
weight of 1 is 3.689289
weight of 2 is -3.288889
weight of 3 is -1.000000
used!
weight of 0 is 0.680003
weight of 1 is 4.828040
weight of 2 is -3.111111
weight of 3 is 0.000000
used!
accept
accept
weight of 0 is 0.165836
weight of 1 is 4.827984
weight of 2 is -3.288889
weight of 3 is -1.000000
not used!
deny
deny
accept
accept
accept
accept
weight of 0 is -0.348332
weight of 1 is 4.827963
weight of 2 is -3.644444
weight of 3 is -2.000000
not used!
weight of 0 is -0.862500
weight of 1 is 4.827949
weight of 2 is -3.644444
weight of 3 is -3.000000
not used!
deny
deny
weight of 0 is -1.376668
weight of 1 is 4.827927
weight of 2 is -3.822222
weight of 3 is -4.000000
not used!
deny
deny
deny
deny
accept
accept
weight of 0 is -0.848471
weight of 1 is 5.966686
weight of 2 is -3.111111
weight of 3 is -3.000000
used!
weight of 0 is -0.320273
weight of 1 is 7.105444
weight of 2 is -2.400000
weight of 3 is -2.000000
used!
accept
accept
weight of 0 is -0.834442
weight of 1 is 7.105387
weight of 2 is -2.755556
weight of 3 is -3.000000
not used!
weight of 0 is -1.348611
weight of 1 is 7.105373
weight of 2 is -2.755556
weight of 3 is -4.000000
not used!
deny
deny
weight of 0 is -1.862781
weight of 1 is 7.105352
weight of 2 is -2.933333
weight of 3 is -5.000000
not used!
deny
deny
weight of 0 is -2.376950
weight of 1 is 7.105331
weight of 2 is -3.288889
weight of 3 is -6.000000
not used!
deny
deny
weight of 0 is -1.862742
weight of 1 is 7.105387
weight of 2 is -3.288889
weight of 3 is -5.000000
used!
weight of 0 is -1.348533
weight of 1 is 7.105444
weight of 2 is -3.288889
weight of 3 is -4.000000
used!
deny
deny
weight of 0 is -0.834324
weight of 1 is 7.105465
weight of 2 is -3.111111
weight of 3 is -3.000000
used!
weight of 0 is -0.320115
weight of 1 is 7.105486
weight of 2 is -2.933333
weight of 3 is -2.000000
used!
accept
accept
accept
accept
weight of 0 is 0.194094
weight of 1 is 7.105507
weight of 2 is -2.577778
weight of 3 is -1.000000
used!
weight of 0 is 0.708304
weight of 1 is 7.105528
weight of 2 is -2.222222
weight of 3 is 0.000000
used!
weight of 0 is 0.194133
weight of 1 is 5.965422
weight of 2 is -2.222222
weight of 3 is -1.000000
not used!
weight of 0 is -0.320038
weight of 1 is 5.965401
weight of 2 is -2.400000
weight of 3 is -2.000000
not used!
deny
deny
weight of 0 is -0.834209
weight of 1 is 5.965380
weight of 2 is -2.755556
weight of 3 is -3.000000
not used!
deny
deny
accept
accept
weight of 0 is -1.348380
weight of 1 is 5.965366
weight of 2 is -2.755556
weight of 3 is -4.000000
not used!
accept
accept
weight of 0 is -0.834170
weight of 1 is 5.965422
weight of 2 is -2.577778
weight of 3 is -3.000000
used!
weight of 0 is -0.319959
weight of 1 is 5.965478
weight of 2 is -2.400000
weight of 3 is -2.000000
used!
deny
deny
weight of 0 is -0.834131
weight of 1 is 4.825450
weight of 2 is -2.577778
weight of 3 is -3.000000
not used!
weight of 0 is -1.348304
weight of 1 is 4.825429
weight of 2 is -2.933333
weight of 3 is -4.000000
not used!
deny
deny
weight of 0 is -1.862477
weight of 1 is 4.825415
weight of 2 is -2.933333
weight of 3 is -5.000000
not used!
deny
deny
weight of 0 is -1.348265
weight of 1 is 4.825471
weight of 2 is -2.933333
weight of 3 is -4.000000
used!
weight of 0 is -0.834053
weight of 1 is 4.825527
weight of 2 is -2.933333
weight of 3 is -3.000000
used!
deny
deny
weight of 0 is -0.319842
weight of 1 is 4.825549
weight of 2 is -2.755556
weight of 3 is -2.000000
used!
weight of 0 is 0.194370
weight of 1 is 4.825570
weight of 2 is -2.577778
weight of 3 is -1.000000
used!
weight of 0 is -0.319803
weight of 1 is 4.825549
weight of 2 is -2.755556
weight of 3 is -2.000000
not used!
accept
accept
accept
accept
weight of 0 is 0.194409
weight of 1 is 4.825570
weight of 2 is -2.400000
weight of 3 is -1.000000
used!
weight of 0 is 0.708621
weight of 1 is 4.825591
weight of 2 is -2.044444
weight of 3 is 0.000000
used!
weight of 0 is 0.194447
weight of 1 is 4.825534
weight of 2 is -2.400000
weight of 3 is -1.000000
not used!
accept
accept
weight of 0 is -0.319727
weight of 1 is 4.825520
weight of 2 is -2.400000
weight of 3 is -2.000000
not used!
accept
accept
deny
deny
deny
deny
deny
deny
weight of 0 is 0.194487
weight of 1 is 4.825577
weight of 2 is -2.222222
weight of 3 is -1.000000
used!
weight of 0 is 0.708701
weight of 1 is 4.825633
weight of 2 is -2.044444
weight of 3 is 0.000000
used!
accept
accept
weight of 0 is 1.222915
weight of 1 is 4.825654
weight of 2 is -1.688889
weight of 3 is 1.000000
used!
weight of 0 is 1.737129
weight of 1 is 4.825675
weight of 2 is -1.333333
weight of 3 is 2.000000
used!
accept
accept
accept
accept
accept
accept
weight of 0 is 1.222953
weight of 1 is 4.825619
weight of 2 is -1.511111
weight of 3 is 1.000000
not used!
accept
accept
weight of 0 is 0.708776
weight of 1 is 4.825598
weight of 2 is -1.866667
weight of 3 is 0.000000
not used!
accept
accept
accept
accept
accept
accept
deny
deny
accept
accept
weight of 0 is 0.194597
weight of 1 is 4.825541
weight of 2 is -2.044444
weight of 3 is -1.000000
not used!
accept
accept
weight of 0 is -0.319582
weight of 1 is 4.825520
weight of 2 is -2.400000
weight of 3 is -2.000000
not used!
weight of 0 is -0.833762
weight of 1 is 4.825506
weight of 2 is -2.400000
weight of 3 is -3.000000
not used!
accept
accept
deny
deny
deny
deny
deny
deny
weight of 0 is -0.319544
weight of 1 is 4.825527
weight of 2 is -2.222222
weight of 3 is -2.000000
used!
weight of 0 is 0.194674
weight of 1 is 4.825549
weight of 2 is -2.044444
weight of 3 is -1.000000
used!
deny
deny
weight of 0 is 0.708893
weight of 1 is 4.825570
weight of 2 is -1.688889
weight of 3 is 0.000000
used!
weight of 0 is 1.223111
weight of 1 is 4.825591
weight of 2 is -1.333333
weight of 3 is 1.000000
used!
weight of 0 is 0.708930
weight of 1 is 4.825534
weight of 2 is -1.511111
weight of 3 is 0.000000
not used!
weight of 0 is 0.194748
weight of 1 is 4.825513
weight of 2 is -1.866667
weight of 3 is -1.000000
not used!
deny
deny
weight of 0 is 0.708967
weight of 1 is 4.825527
weight of 2 is -1.866667
weight of 3 is 0.000000
used!
weight of 0 is 1.223185
weight of 1 is 4.825541
weight of 2 is -1.866667
weight of 3 is 1.000000
used!
weight of 0 is 0.709004
weight of 1 is 4.825527
weight of 2 is -1.866667
weight of 3 is 0.000000
not used!
accept
accept
weight of 0 is 1.223222
weight of 1 is 4.825549
weight of 2 is -1.688889
weight of 3 is 1.000000
used!
weight of 0 is 1.737441
weight of 1 is 4.825570
weight of 2 is -1.511111
weight of 3 is 2.000000
used!
accept
accept
weight of 0 is 2.251660
weight of 1 is 4.825591
weight of 2 is -1.155556
weight of 3 is 3.000000
used!
weight of 0 is 2.765879
weight of 1 is 4.825612
weight of 2 is -0.800000
weight of 3 is 4.000000
used!
weight of 0 is 2.251697
weight of 1 is 4.825591
weight of 2 is -0.977778
weight of 3 is 3.000000
not used!
accept
accept
weight of 0 is 1.737515
weight of 1 is 4.825556
weight of 2 is -0.977778
weight of 3 is 2.000000
not used!
accept
accept
accept
accept
weight of 0 is 1.223331
weight of 1 is 4.825499
weight of 2 is -1.155556
weight of 3 is 1.000000
not used!
accept
accept
weight of 0 is 0.709147
weight of 1 is 4.825485
weight of 2 is -1.155556
weight of 3 is 0.000000
not used!
accept
accept
weight of 0 is 0.194964
weight of 1 is 4.825464
weight of 2 is -1.333333
weight of 3 is -1.000000
not used!
deny
deny
weight of 0 is -0.319221
weight of 1 is 4.825443
weight of 2 is -1.688889
weight of 3 is -2.000000
not used!
deny
deny
weight of 0 is -0.833405
weight of 1 is 4.825429
weight of 2 is -1.688889
weight of 3 is -3.000000
not used!
accept
accept
accept
accept
weight of 0 is -0.319184
weight of 1 is 4.825450
weight of 2 is -1.333333
weight of 3 is -2.000000
used!
weight of 0 is 0.195037
weight of 1 is 4.825471
weight of 2 is -0.977778
weight of 3 is -1.000000
used!
weight of 0 is -0.319148
weight of 1 is 4.825415
weight of 2 is -1.155556
weight of 3 is -2.000000
not used!
deny
deny
weight of 0 is -0.833334
weight of 1 is 4.825394
weight of 2 is -1.511111
weight of 3 is -3.000000
not used!
weight of 0 is -1.347520
weight of 1 is 4.825379
weight of 2 is -1.511111
weight of 3 is -4.000000
not used!
deny
deny
deny
deny
weight of 0 is -0.833298
weight of 1 is 4.825436
weight of 2 is -1.333333
weight of 3 is -3.000000
used!
weight of 0 is -0.319075
weight of 1 is 4.825492
weight of 2 is -1.155556
weight of 3 is -2.000000
used!
weight of 0 is -0.833262
weight of 1 is 4.825471
weight of 2 is -1.333333
weight of 3 is -3.000000
not used!
weight of 0 is -1.347448
weight of 1 is 4.825450
weight of 2 is -1.688889
weight of 3 is -4.000000
not used!
deny
deny
weight of 0 is -0.833226
weight of 1 is 4.825471
weight of 2 is -1.333333
weight of 3 is -3.000000
used!
weight of 0 is -0.319003
weight of 1 is 4.825492
weight of 2 is -0.977778
weight of 3 is -2.000000
used!
deny
deny
weight of 0 is 0.195220
weight of 1 is 4.825506
weight of 2 is -0.977778
weight of 3 is -1.000000
used!
weight of 0 is 0.709442
weight of 1 is 4.825520
weight of 2 is -0.977778
weight of 3 is 0.000000
used!
accept
accept
weight of 0 is 1.223665
weight of 1 is 4.825541
weight of 2 is -0.800000
weight of 3 is 1.000000
used!
weight of 0 is 1.737888
weight of 1 is 4.825563
weight of 2 is -0.622222
weight of 3 is 2.000000
used!
accept
accept
accept
accept
weight of 0 is 2.252111
weight of 1 is 4.825584
weight of 2 is -0.266667
weight of 3 is 3.000000
used!
weight of 0 is 2.766334
weight of 1 is 4.825605
weight of 2 is 0.088889
weight of 3 is 4.000000
used!
accept
accept
weight of 0 is 2.252146
weight of 1 is 4.825584
weight of 2 is -0.088889
weight of 3 is 3.000000
not used!
weight of 0 is 1.723962
weight of 1 is 3.686325
weight of 2 is -0.088889
weight of 3 is 2.000000
not used!
accept
accept
weight of 0 is 1.209773
weight of 1 is 2.547088
weight of 2 is -0.444444
weight of 3 is 1.000000
not used!
accept
accept
accept
accept
accept
accept
accept
accept
accept
accept
accept
accept
weight of 0 is 0.695583
weight of 1 is 2.547032
weight of 2 is -0.444444
weight of 3 is 0.000000
not used!
weight of 0 is 0.181393
weight of 1 is 2.547011
weight of 2 is -0.622222
weight of 3 is -1.000000
not used!
deny
deny
weight of 0 is -0.332797
weight of 1 is 2.546990
weight of 2 is -0.977778
weight of 3 is -2.000000
not used!
weight of 0 is -0.846988
weight of 1 is 2.546975
weight of 2 is -0.977778
weight of 3 is -3.000000
not used!
deny
deny
weight of 0 is -1.375174
weight of 1 is 1.407771
weight of 2 is -0.977778
weight of 3 is -4.000000
not used!
deny
deny
deny
deny
weight of 0 is -0.860948
weight of 1 is 1.407828
weight of 2 is -0.800000
weight of 3 is -3.000000
used!
weight of 0 is -0.346722
weight of 1 is 1.407884
weight of 2 is -0.622222
weight of 3 is -2.000000
used!
deny
deny
weight of 0 is -0.860913
weight of 1 is 1.407863
weight of 2 is -0.800000
weight of 3 is -3.000000
not used!
deny
deny
weight of 0 is -0.346687
weight of 1 is 1.407884
weight of 2 is -0.444444
weight of 3 is -2.000000
used!
weight of 0 is 0.167540
weight of 1 is 1.407905
weight of 2 is -0.088889
weight of 3 is -1.000000
used!
weight of 0 is -0.360648
weight of 1 is 0.268663
weight of 2 is -0.266667
weight of 3 is -2.000000
not used!
deny
deny
weight of 0 is 0.153579
weight of 1 is 1.406552
weight of 2 is -0.266667
weight of 3 is -1.000000
used!
weight of 0 is 0.667806
weight of 1 is 2.544442
weight of 2 is -0.266667
weight of 3 is 0.000000
used!
accept
accept
weight of 0 is 1.196012
weight of 1 is 3.682345
weight of 2 is -0.266667
weight of 3 is 1.000000
used!
weight of 0 is 1.724218
weight of 1 is 4.820248
weight of 2 is -0.266667
weight of 3 is 2.000000
used!
accept
accept
weight of 0 is 2.238445
weight of 1 is 5.958135
weight of 2 is -0.088889
weight of 3 is 3.000000
used!
weight of 0 is 2.752672
weight of 1 is 7.096022
weight of 2 is 0.088889
weight of 3 is 4.000000
used!
accept
accept
accept
accept
accept
accept
accept
accept
accept
accept
weight of 0 is 2.238478
weight of 1 is 5.956820
weight of 2 is -0.088889
weight of 3 is 3.000000
not used!
accept
accept
weight of 0 is 1.724283
weight of 1 is 5.956799
weight of 2 is -0.444444
weight of 3 is 2.000000
not used!
accept
accept
accept
accept
accept
accept
accept
accept
accept
accept
accept
accept
weight of 0 is 1.210087
weight of 1 is 4.817653
weight of 2 is -0.622222
weight of 3 is 1.000000
not used!
accept
accept
weight of 0 is 0.695890
weight of 1 is 4.817639
weight of 2 is -0.622222
weight of 3 is 0.000000
not used!
accept
accept
weight of 0 is 0.181693
weight of 1 is 4.817618
weight of 2 is -0.800000
weight of 3 is -1.000000
not used!
deny
deny
weight of 0 is -0.332505
weight of 1 is 4.817597
weight of 2 is -1.155556
weight of 3 is -2.000000
not used!
deny
deny
weight of 0 is -0.846702
weight of 1 is 4.817583
weight of 2 is -1.155556
weight of 3 is -3.000000
not used!
deny
deny
weight of 0 is -0.332471
weight of 1 is 4.817604
weight of 2 is -0.800000
weight of 3 is -2.000000
used!
weight of 0 is 0.181761
weight of 1 is 4.817625
weight of 2 is -0.444444
weight of 3 is -1.000000
used!
weight of 0 is -0.332437
weight of 1 is 4.817604
weight of 2 is -0.622222
weight of 3 is -2.000000
not used!
deny
deny
weight of 0 is 0.181794
weight of 1 is 4.817618
weight of 2 is -0.622222
weight of 3 is -1.000000
used!
weight of 0 is 0.696026
weight of 1 is 4.817632
weight of 2 is -0.622222
weight of 3 is 0.000000
used!
accept
accept
weight of 0 is 1.210258
weight of 1 is 4.817653
weight of 2 is -0.444444
weight of 3 is 1.000000
used!
weight of 0 is 1.724490
weight of 1 is 4.817674
weight of 2 is -0.266667
weight of 3 is 2.000000
used!
accept
accept
accept
accept
weight of 0 is 1.210291
weight of 1 is 4.817618
weight of 2 is -0.622222
weight of 3 is 1.000000
not used!
accept
accept
accept
accept
accept
accept
weight of 0 is 0.696092
weight of 1 is 3.678606
weight of 2 is -0.977778
weight of 3 is 0.000000
not used!
accept
accept
accept
accept
accept
accept
weight of 0 is 0.181891
weight of 1 is 3.678592
weight of 2 is -0.977778
weight of 3 is -1.000000
not used!
accept
accept
weight of 0 is -0.332310
weight of 1 is 2.539672
weight of 2 is -1.155556
weight of 3 is -2.000000
not used!
accept
accept
weight of 0 is -0.846512
weight of 1 is 2.539651
weight of 2 is -1.511111
weight of 3 is -3.000000
not used!
weight of 0 is -1.360713
weight of 1 is 2.539637
weight of 2 is -1.511111
weight of 3 is -4.000000
not used!
weight of 0 is -1.874915
weight of 1 is 2.539616
weight of 2 is -1.688889
weight of 3 is -5.000000
not used!
weight of 0 is -2.389118
weight of 1 is 2.539594
weight of 2 is -2.044444
weight of 3 is -6.000000
not used!
deny
deny
weight of 0 is -2.903320
weight of 1 is 2.539580
weight of 2 is -2.044444
weight of 3 is -7.000000
not used!
deny
deny
deny
deny
deny
deny
deny
deny
deny
deny
weight of 0 is -2.389084
weight of 1 is 3.677310
weight of 2 is -2.044444
weight of 3 is -6.000000
used!
weight of 0 is -1.874848
weight of 1 is 4.815039
weight of 2 is -2.044444
weight of 3 is -5.000000
used!
deny
deny
weight of 0 is -1.360613
weight of 1 is 5.953405
weight of 2 is -1.866667
weight of 3 is -4.000000
used!
weight of 0 is -0.846376
weight of 1 is 7.091771
weight of 2 is -1.688889
weight of 3 is -3.000000
used!
accept
accept
weight of 0 is -0.318155
weight of 1 is 8.230158
weight of 2 is -0.977778
weight of 3 is -2.000000
used!
weight of 0 is 0.210066
weight of 1 is 9.368545
weight of 2 is -0.266667
weight of 3 is -1.000000
used!
accept
accept
weight of 0 is 0.724302
weight of 1 is 10.506907
weight of 2 is 0.088889
weight of 3 is 0.000000
used!
weight of 0 is 1.238539
weight of 1 is 11.645268
weight of 2 is 0.444444
weight of 3 is 1.000000
used!
accept
accept
weight of 0 is 1.752775
weight of 1 is 11.645282
weight of 2 is 0.444444
weight of 3 is 2.000000
used!
weight of 0 is 2.267012
weight of 1 is 11.645296
weight of 2 is 0.444444
weight of 3 is 3.000000
used!
accept
accept
accept
accept
accept
accept
weight of 0 is 1.752807
weight of 1 is 11.645240
weight of 2 is 0.088889
weight of 3 is 2.000000
not used!
accept
accept
accept
accept
accept
accept
accept
accept
accept
accept
accept
accept
weight of 0 is 1.238600
weight of 1 is 11.645183
weight of 2 is 0.088889
weight of 3 is 1.000000
not used!
weight of 0 is 0.710404
weight of 1 is 10.506470
weight of 2 is 0.088889
weight of 3 is 0.000000
not used!
accept
accept
accept
accept
accept
accept
accept
accept
accept
accept
accept
accept
accept
accept
weight of 0 is 0.182205
weight of 1 is 9.367810
weight of 2 is 0.088889
weight of 3 is -1.000000
not used!
deny
deny
accept
accept
accept
accept
weight of 0 is 0.696447
weight of 1 is 9.367831
weight of 2 is 0.266667
weight of 3 is 0.000000
used!
weight of 0 is 1.210688
weight of 1 is 9.367853
weight of 2 is 0.444444
weight of 3 is 1.000000
used!
accept
accept
accept
accept
accept
accept
accept
accept
accept
accept
accept
accept
accept
accept
accept
accept
accept
accept
accept
accept
accept
accept
weight of 0 is 0.696473
weight of 1 is 8.229440
weight of 2 is 0.266667
weight of 3 is 0.000000
not used!
accept
accept
weight of 0 is 0.182258
weight of 1 is 8.229419
weight of 2 is -0.088889
weight of 3 is -1.000000
not used!
accept
accept
weight of 0 is -0.331958
weight of 1 is 8.229404
weight of 2 is -0.088889
weight of 3 is -2.000000
not used!
weight of 0 is -0.846174
weight of 1 is 8.229383
weight of 2 is -0.266667
weight of 3 is -3.000000
not used!
accept
accept
accept
accept
deny
deny
accept
accept
weight of 0 is -1.360391
weight of 1 is 7.091043
weight of 2 is -0.266667
weight of 3 is -4.000000
not used!
deny
deny
deny
deny
deny
deny
weight of 0 is -0.858666
weight of 1 is 7.091100
weight of 2 is -0.266667
weight of 3 is -3.000000
used!
weight of 0 is -0.356939
weight of 1 is 7.091156
weight of 2 is -0.266667
weight of 3 is -2.000000
used!
weight of 0 is -0.871158
weight of 1 is 7.091142
weight of 2 is -0.266667
weight of 3 is -3.000000
not used!
deny
deny
weight of 0 is -0.369433
weight of 1 is 7.091161
weight of 2 is -0.266667
weight of 3 is -2.000000
used!
weight of 0 is 0.132293
weight of 1 is 7.091179
weight of 2 is -0.266667
weight of 3 is -1.000000
used!
weight of 0 is -0.381927
weight of 1 is 5.952973
[...]
weight of 3 is 0.000000
used!
weight of 0 is 4.766368
weight of 1 is -9.356136
weight of 2 is -8.377778
weight of 3 is 1.000000
used!
weight of 0 is 4.751242
weight of 1 is -9.356193
weight of 2 is -8.377778
weight of 3 is 0.000000
not used!
weight of 0 is 4.736116
weight of 1 is -9.517538
weight of 2 is -8.377778
weight of 3 is -1.000000
not used!
deny
deny
deny
deny
weight of 0 is 4.720990
weight of 1 is -9.640200
weight of 2 is -8.377778
weight of 3 is -2.000000
not used!
weight of 0 is 4.705864
weight of 1 is -9.640238
weight of 2 is -8.377778
weight of 3 is -3.000000
not used!
weight of 0 is 4.690738
weight of 1 is -9.640407
weight of 2 is -8.377778
weight of 3 is -4.000000
not used!
weight of 0 is 4.675612
weight of 1 is -9.640444
weight of 2 is -8.377778
weight of 3 is -5.000000
not used!
weight of 0 is 4.660486
weight of 1 is -9.642549
weight of 2 is -8.377778
weight of 3 is -6.000000
not used!
weight of 0 is 4.645360
weight of 1 is -9.645291
weight of 2 is -8.377778
weight of 3 is -7.000000
not used!
deny
deny
weight of 0 is 4.660486
weight of 1 is -9.618614
weight of 2 is -8.377778
weight of 3 is -6.000000
used!
weight of 0 is 4.675612
weight of 1 is -9.591936
weight of 2 is -8.377778
weight of 3 is -5.000000
used!
deny
deny
weight of 0 is 4.660486
weight of 1 is -9.592086
weight of 2 is -8.377778
weight of 3 is -6.000000
not used!
weight of 0 is 4.645360
weight of 1 is -9.592217
weight of 2 is -8.377778
weight of 3 is -7.000000
not used!
deny
deny
deny
deny
deny
deny
deny
deny
deny
deny
weight of 0 is 4.635302
weight of 1 is -10.003791
weight of 2 is -8.444444
weight of 3 is -8.000000
not used!
deny
deny
deny
deny
deny
deny
weight of 0 is 4.650428
weight of 1 is -10.000823
weight of 2 is -8.444444
weight of 3 is -7.000000
used!
weight of 0 is 4.665554
weight of 1 is -9.997854
weight of 2 is -8.444444
weight of 3 is -6.000000
used!
deny
deny
deny
deny
deny
deny
weight of 0 is 4.680680
weight of 1 is -9.962703
weight of 2 is -8.444444
weight of 3 is -5.000000
used!
weight of 0 is 4.695806
weight of 1 is -9.927552
weight of 2 is -8.444444
weight of 3 is -4.000000
used!
weight of 0 is 4.140816
weight of 1 is -12.814789
weight of 2 is -8.977778
weight of 3 is -5.000000
not used!
weight of 0 is 4.121880
weight of 1 is -15.662539
weight of 2 is -9.866667
weight of 3 is -6.000000
not used!
deny
deny
weight of 0 is 4.137006
weight of 1 is -15.662520
weight of 2 is -9.866667
weight of 3 is -5.000000
used!
weight of 0 is 4.152132
weight of 1 is -15.662501
weight of 2 is -9.866667
weight of 3 is -4.000000
used!
deny
deny
deny
deny
deny
deny
weight of 0 is 4.167258
weight of 1 is -15.662426
weight of 2 is -9.866667
weight of 3 is -3.000000
used!
weight of 0 is 4.182384
weight of 1 is -15.662351
weight of 2 is -9.866667
weight of 3 is -2.000000
used!
deny
deny
weight of 0 is 4.197510
weight of 1 is -15.662332
weight of 2 is -9.866667
weight of 3 is -1.000000
used!
weight of 0 is 4.212636
weight of 1 is -15.662313
weight of 2 is -9.866667
weight of 3 is 0.000000
used!
accept
accept
weight of 0 is 4.227762
weight of 1 is -15.662295
weight of 2 is -9.866667
weight of 3 is 1.000000
used!
weight of 0 is 4.242888
weight of 1 is -15.662276
weight of 2 is -9.866667
weight of 3 is 2.000000
used!
accept
accept
accept
accept
weight of 0 is 4.258015
weight of 1 is -15.661468
weight of 2 is -9.866667
weight of 3 is 3.000000
used!
weight of 0 is 4.273141
weight of 1 is -15.660660
weight of 2 is -9.866667
weight of 3 is 4.000000
used!
accept
accept
accept
accept
accept
accept
accept
accept
accept
accept
accept
accept
accept
accept
accept
accept
accept
accept
accept
accept
deny
deny
deny
deny
accept
accept
deny
deny
accept
accept
weight of 0 is 4.258015
weight of 1 is -15.695755
weight of 2 is -9.866667
weight of 3 is 3.000000
not used!
deny
deny
accept
accept
weight of 0 is 4.242888
weight of 1 is -15.696149
weight of 2 is -9.866667
weight of 3 is 2.000000
not used!
weight of 0 is 4.227763
weight of 1 is -15.696487
weight of 2 is -9.866667
weight of 3 is 1.000000
not used!
accept
accept
accept
accept
accept
accept
accept
accept
accept
accept
weight of 0 is 4.212636
weight of 1 is -15.697427
weight of 2 is -9.866667
weight of 3 is 0.000000
not used!
accept
accept
deny
deny
deny
deny
weight of 0 is 3.689034
weight of 1 is -15.914648
weight of 2 is -10.088889
weight of 3 is -1.000000
not used!
weight of 0 is 3.673908
weight of 1 is -15.914705
weight of 2 is -10.088889
weight of 3 is -2.000000
not used!
deny
deny
deny
deny
deny
deny
weight of 0 is 3.658782
weight of 1 is -16.119251
weight of 2 is -10.088889
weight of 3 is -3.000000
not used!
deny
deny
deny
deny
deny
deny
deny
deny
deny
deny
deny
deny
weight of 0 is 3.673908
weight of 1 is -16.087764
weight of 2 is -10.088889
weight of 3 is -2.000000
used!
weight of 0 is 3.689034
weight of 1 is -16.056276
weight of 2 is -10.088889
weight of 3 is -1.000000
used!
deny
deny
weight of 0 is 3.704160
weight of 1 is -16.056257
weight of 2 is -10.088889
weight of 3 is 0.000000
used!
weight of 0 is 3.719286
weight of 1 is -16.056239
weight of 2 is -10.088889
weight of 3 is 1.000000
used!
accept
accept
weight of 0 is 3.734412
weight of 1 is -16.056220
weight of 2 is -10.088889
weight of 3 is 2.000000
used!
weight of 0 is 3.749538
weight of 1 is -16.056201
weight of 2 is -10.088889
weight of 3 is 3.000000
used!
accept
accept
accept
accept
weight of 0 is 3.730788
weight of 1 is -16.056246
weight of 2 is -10.088889
weight of 3 is 2.000000
not used!
accept
accept
accept
accept
accept
accept
weight of 0 is 3.745915
weight of 1 is -16.013599
weight of 2 is -10.088889
weight of 3 is 3.000000
used!
weight of 0 is 3.761041
weight of 1 is -15.970951
weight of 2 is -10.088889
weight of 3 is 4.000000
used!
accept
accept
accept
accept
accept
accept
weight of 0 is 3.745915
weight of 1 is -15.971233
weight of 2 is -10.088889
weight of 3 is 3.000000
not used!
accept
accept
accept
accept
accept
accept
weight of 0 is 3.730789
weight of 1 is -15.971252
weight of 2 is -10.088889
weight of 3 is 2.000000
not used!
weight of 0 is 3.715663
weight of 1 is -15.971308
weight of 2 is -10.088889
weight of 3 is 1.000000
not used!
weight of 0 is 3.700537
weight of 1 is -15.971365
weight of 2 is -10.088889
weight of 3 is 0.000000
not used!
weight of 0 is 3.685410
weight of 1 is -16.017037
weight of 2 is -10.088889
weight of 3 is -1.000000
not used!
weight of 0 is 3.670284
weight of 1 is -16.068514
weight of 2 is -10.088889
weight of 3 is -2.000000
not used!
weight of 0 is 3.655158
weight of 1 is -16.293285
weight of 2 is -10.088889
weight of 3 is -3.000000
not used!
deny
deny
deny
deny
deny
deny
deny
deny
deny
deny
deny
deny
deny
deny
weight of 0 is 4.209968
weight of 1 is -16.292691
weight of 2 is -10.088889
weight of 3 is -2.000000
used!
weight of 0 is 4.764778
weight of 1 is -16.292097
weight of 2 is -10.088889
weight of 3 is -1.000000
used!
accept
accept
weight of 0 is 5.319588
weight of 1 is -16.291535
weight of 2 is -10.088889
weight of 3 is 0.000000
used!
weight of 0 is 5.874398
weight of 1 is -16.290974
weight of 2 is -10.088889
weight of 3 is 1.000000
used!
accept
accept
accept
accept
accept
accept
accept
accept
accept
accept
accept
accept
accept
accept
accept
accept
deny
deny
deny
deny
deny
deny
accept
accept
deny
deny
accept
accept
deny
deny
weight of 0 is 5.855742
weight of 1 is -16.412813
weight of 2 is -10.088889
weight of 3 is 0.000000
not used!
deny
deny
deny
deny
accept
accept
deny
deny
deny
deny
deny
deny
deny
deny
weight of 0 is 6.410740
weight of 1 is -15.186912
weight of 2 is -9.200000
weight of 3 is 1.000000
used!
weight of 0 is 6.965739
weight of 1 is -13.961012
weight of 2 is -8.311111
weight of 3 is 2.000000
used!
deny
deny
accept
accept
deny
deny
weight of 0 is 7.520738
weight of 1 is -11.106555
weight of 2 is -7.422222
weight of 3 is 3.000000
used!
weight of 0 is 8.075738
weight of 1 is -8.252097
weight of 2 is -6.533333
weight of 3 is 4.000000
used!
deny
deny
deny
deny
accept
accept
accept
accept
weight of 0 is 8.056815
weight of 1 is -8.334097
weight of 2 is -6.533333
weight of 3 is 3.000000
not used!
accept
accept
accept
accept
accept
accept
deny
deny
accept
accept
weight of 0 is 8.041689
weight of 1 is -8.644808
weight of 2 is -6.533333
weight of 3 is 2.000000
not used!
weight of 0 is 8.026563
weight of 1 is -8.653243
weight of 2 is -6.533333
weight of 3 is 1.000000
not used!
weight of 0 is 8.011437
weight of 1 is -8.673816
weight of 2 is -6.533333
weight of 3 is 0.000000
not used!
weight of 0 is 7.996310
weight of 1 is -8.674191
weight of 2 is -6.533333
weight of 3 is -1.000000
not used!
weight of 0 is 7.442038
weight of 1 is -8.674302
weight of 2 is -6.533333
weight of 3 is -2.000000
not used!
deny
deny
deny
deny
deny
deny
deny
deny
weight of 0 is 7.457164
weight of 1 is -5.934891
weight of 2 is -6.533333
weight of 3 is -1.000000
used!
weight of 0 is 7.472290
weight of 1 is -3.195480
weight of 2 is -6.533333
weight of 3 is 0.000000
used!
accept
accept
deny
deny
deny
deny
deny
deny
accept
accept
deny
deny
deny
deny
accept
accept
accept
accept
deny
deny
deny
deny
deny
deny
weight of 0 is 7.463598
weight of 1 is -3.496151
weight of 2 is -6.533333
weight of 3 is -1.000000
not used!
weight of 0 is 7.448472
weight of 1 is -3.499796
weight of 2 is -6.533333
weight of 3 is -2.000000
not used!
weight of 0 is 7.433345
weight of 1 is -3.570079
weight of 2 is -6.533333
weight of 3 is -3.000000
not used!
deny
deny
weight of 0 is 7.418220
weight of 1 is -3.639874
weight of 2 is -6.533333
weight of 3 is -4.000000
not used!
deny
deny
deny
deny
deny
deny
deny
deny
deny
deny
deny
deny
deny
deny
deny
deny
deny
deny
deny
deny
weight of 0 is 7.433346
weight of 1 is -3.052617
weight of 2 is -6.533333
weight of 3 is -3.000000
used!
weight of 0 is 7.448472
weight of 1 is -2.465359
weight of 2 is -6.533333
weight of 3 is -2.000000
used!
deny
deny
deny
deny
weight of 0 is 7.463598
weight of 1 is -2.465322
weight of 2 is -6.533333
weight of 3 is -1.000000
used!
weight of 0 is 7.478724
weight of 1 is -2.465284
weight of 2 is -6.533333
weight of 3 is 0.000000
used!
accept
accept
deny
deny
deny
deny
deny
deny
accept
accept
accept
accept
accept
accept
weight of 0 is 7.463597
weight of 1 is -2.465848
weight of 2 is -6.533333
weight of 3 is -1.000000
not used!
deny
deny
deny
deny
deny
deny
weight of 0 is 7.478724
weight of 1 is -2.146314
weight of 2 is -6.533333
weight of 3 is 0.000000
used!
weight of 0 is 7.493850
weight of 1 is -1.826779
weight of 2 is -6.533333
weight of 3 is 1.000000
used!
accept
accept
deny
deny
deny
deny
deny
deny
deny
deny
deny
deny
accept
accept
weight of 0 is 7.478723
weight of 1 is -2.035431
weight of 2 is -6.533333
weight of 3 is 0.000000
not used!
weight of 0 is 7.463597
weight of 1 is -2.246318
weight of 2 is -6.533333
weight of 3 is -1.000000
not used!
deny
deny
accept
accept
weight of 0 is 7.448471
weight of 1 is -2.246525
weight of 2 is -6.533333
weight of 3 is -2.000000
not used!
weight of 0 is 7.433345
weight of 1 is -2.246544
weight of 2 is -6.533333
weight of 3 is -3.000000
not used!
deny
deny
deny
deny
deny
deny
deny
deny
deny
deny
deny
deny
deny
deny
deny
deny
weight of 0 is 7.448471
weight of 1 is -2.245059
weight of 2 is -6.533333
weight of 3 is -2.000000
used!
weight of 0 is 7.463597
weight of 1 is -2.243575
weight of 2 is -6.533333
weight of 3 is -1.000000
used!
deny
deny
deny
deny
deny
deny
deny
deny
deny
deny
deny
deny
weight of 0 is 7.478723
weight of 1 is -2.218701
weight of 2 is -6.533333
weight of 3 is 0.000000
used!
weight of 0 is 7.493849
weight of 1 is -2.193827
weight of 2 is -6.533333
weight of 3 is 1.000000
used!
accept
accept
weight of 0 is 7.508976
weight of 1 is -2.193714
weight of 2 is -6.533333
weight of 3 is 2.000000
used!
weight of 0 is 7.524102
weight of 1 is -2.193601
weight of 2 is -6.533333
weight of 3 is 3.000000
used!
deny
deny
weight of 0 is 6.969359
weight of 1 is -2.193622
weight of 2 is -6.533333
weight of 3 is 2.000000
not used!
accept
accept
accept
accept
accept
accept
deny
deny
accept
accept
deny
deny
deny
deny
deny
deny
deny
deny
accept
accept
weight of 0 is 6.954233
weight of 1 is -2.218515
weight of 2 is -6.533333
weight of 3 is 1.000000
not used!
accept
accept
accept
accept
weight of 0 is 6.939107
weight of 1 is -2.786563
weight of 2 is -6.533333
weight of 3 is 0.000000
not used!
weight of 0 is 6.923981
weight of 1 is -2.832291
weight of 2 is -6.533333
weight of 3 is -1.000000
not used!
deny
deny
weight of 0 is 6.908855
weight of 1 is -2.869095
weight of 2 is -6.533333
weight of 3 is -2.000000
not used!
weight of 0 is 6.356452
weight of 1 is -2.869096
weight of 2 is -6.533333
weight of 3 is -3.000000
not used!
weight of 0 is 6.341326
weight of 1 is -2.869115
weight of 2 is -6.533333
weight of 3 is -4.000000
not used!
weight of 0 is 6.326200
weight of 1 is -3.182768
weight of 2 is -6.533333
weight of 3 is -5.000000
not used!
weight of 0 is 6.311074
weight of 1 is -3.275164
weight of 2 is -6.533333
weight of 3 is -6.000000
not used!
deny
deny
deny
deny
deny
deny
deny
deny
weight of 0 is 6.326200
weight of 1 is -0.521329
weight of 2 is -6.533333
weight of 3 is -5.000000
used!
weight of 0 is 6.341326
weight of 1 is 2.232506
weight of 2 is -6.533333
weight of 3 is -4.000000
used!
deny
deny
deny
deny
deny
deny
deny
deny
deny
deny
deny
deny
deny
deny
weight of 0 is 6.356452
weight of 1 is 2.242219
weight of 2 is -6.533333
weight of 3 is -3.000000
used!
weight of 0 is 6.371578
weight of 1 is 2.251932
weight of 2 is -6.533333
weight of 3 is -2.000000
used!
deny
deny
deny
deny
deny
deny
weight of 0 is 6.386704
weight of 1 is 2.253980
weight of 2 is -6.533333
weight of 3 is -1.000000
used!
weight of 0 is 6.401830
weight of 1 is 2.256027
weight of 2 is -6.533333
weight of 3 is 0.000000
used!
accept
accept
weight of 0 is 6.386704
weight of 1 is 2.250917
weight of 2 is -6.533333
weight of 3 is -1.000000
not used!
deny
deny
weight of 0 is 6.401830
weight of 1 is 2.250936
weight of 2 is -6.533333
weight of 3 is 0.000000
used!
weight of 0 is 6.416956
weight of 1 is 2.250955
weight of 2 is -6.533333
weight of 3 is 1.000000
used!
accept
accept
accept
accept
deny
deny
accept
accept
accept
accept
deny
deny
deny
deny
accept
accept
weight of 0 is 6.401830
weight of 1 is 2.245544
weight of 2 is -6.533333
weight of 3 is 0.000000
not used!
weight of 0 is 6.383411
weight of 1 is -0.477447
weight of 2 is -6.577778
weight of 3 is -1.000000
not used!
weight of 0 is 6.368285
weight of 1 is -3.598585
weight of 2 is -6.577778
weight of 3 is -2.000000
not used!
weight of 0 is 6.346494
weight of 1 is -6.603545
weight of 2 is -7.288889
weight of 3 is -3.000000
not used!
weight of 0 is 6.339852
weight of 1 is -8.917166
weight of 2 is -7.466667
weight of 3 is -4.000000
not used!
deny
deny
deny
deny
deny
deny
deny
deny
deny
deny
deny
deny
deny
deny
deny
deny
deny
deny
deny
deny
deny
deny
weight of 0 is 6.354978
weight of 1 is -8.590018
weight of 2 is -7.466667
weight of 3 is -3.000000
used!
weight of 0 is 6.370104
weight of 1 is -8.262871
weight of 2 is -7.466667
weight of 3 is -2.000000
used!
deny
deny
deny
deny
deny
deny
weight of 0 is 6.385231
weight of 1 is -8.257554
weight of 2 is -7.466667
weight of 3 is -1.000000
used!
weight of 0 is 6.400357
weight of 1 is -8.252237
weight of 2 is -7.466667
weight of 3 is 0.000000
used!
deny
deny
deny
deny
accept
accept
accept
accept
deny
deny
deny
deny
weight of 0 is 6.391707
weight of 1 is -8.253965
weight of 2 is -7.555556
weight of 3 is -1.000000
not used!
weight of 0 is 6.383017
weight of 1 is -8.257236
weight of 2 is -7.555556
weight of 3 is -2.000000
not used!
deny
deny
deny
deny
deny
deny
deny
deny
deny
deny
deny
deny
deny
deny
deny
deny
deny
deny
deny
deny
deny
deny
deny
deny
deny
deny
weight of 0 is 6.938018
weight of 1 is -5.705747
weight of 2 is -6.666667
weight of 3 is -1.000000
used!
weight of 0 is 7.493019
weight of 1 is -3.154258
weight of 2 is -5.777778
weight of 3 is 0.000000
used!
accept
accept
weight of 0 is 8.048020
weight of 1 is -0.655923
weight of 2 is -5.600000
weight of 3 is 1.000000
used!
weight of 0 is 8.603021
weight of 1 is 1.842412
weight of 2 is -5.422222
weight of 3 is 2.000000
used!
accept
accept
accept
accept
weight of 0 is 8.048034
weight of 1 is 1.842391
weight of 2 is -5.422222
weight of 3 is 1.000000
not used!
weight of 0 is 7.495592
weight of 1 is 1.637267
weight of 2 is -6.488889
weight of 3 is 0.000000
not used!
weight of 0 is 7.473621
weight of 1 is 1.502644
weight of 2 is -7.022222
weight of 3 is -1.000000
not used!
deny
deny
deny
deny
deny
deny
deny
deny
deny
deny
deny
deny
weight of 0 is 7.495597
weight of 1 is 1.502703
weight of 2 is -7.022222
weight of 3 is 0.000000
used!
weight of 0 is 7.517573
weight of 1 is 1.502761
weight of 2 is -7.022222
weight of 3 is 1.000000
used!
accept
accept
weight of 0 is 7.539549
weight of 1 is 1.502780
weight of 2 is -7.022222
weight of 3 is 2.000000
used!
weight of 0 is 7.561526
weight of 1 is 1.502799
weight of 2 is -7.022222
weight of 3 is 3.000000
used!
deny
deny
accept
accept
accept
accept
accept
accept
accept
accept
deny
deny
accept
accept
weight of 0 is 8.116527
weight of 1 is 1.568813
weight of 2 is -6.844444
weight of 3 is 4.000000
used!
weight of 0 is 8.671529
weight of 1 is 1.634827
weight of 2 is -6.666667
weight of 3 is 5.000000
used!
accept
accept
accept
accept
accept
accept
accept
accept
accept
accept
accept
accept
accept
accept
accept
accept
accept
accept
accept
accept
accept
accept
accept
accept
accept
accept
accept
accept
accept
accept
accept
accept
accept
accept
accept
accept
accept
accept
accept
accept
accept
accept
accept
accept
accept
accept
accept
accept
accept
accept
accept
accept
accept
accept
accept
accept
accept
accept
weight of 0 is 8.649552
weight of 1 is 1.634789
weight of 2 is -6.666667
weight of 3 is 4.000000
not used!
accept
accept
accept
accept
accept
accept
accept
accept
accept
accept
accept
accept
accept
accept
accept
accept
accept
accept
accept
accept
accept
accept
accept
accept
weight of 0 is 8.095596
weight of 1 is 1.616267
weight of 2 is -6.666667
weight of 3 is 3.000000
not used!
weight of 0 is 7.543138
weight of 1 is 1.496923
weight of 2 is -7.555556
weight of 3 is 2.000000
not used!
weight of 0 is 7.003197
weight of 1 is 0.478303
weight of 2 is -7.555556
weight of 3 is 1.000000
not used!
weight of 0 is 6.448166
weight of 1 is -0.749942
weight of 2 is -8.088889
weight of 3 is 0.000000
not used!
weight of 0 is 5.893346
weight of 1 is -0.752288
weight of 2 is -8.088889
weight of 3 is -1.000000
not used!
weight of 0 is 5.338511
weight of 1 is -0.752344
weight of 2 is -8.088889
weight of 3 is -2.000000
not used!
deny
deny
weight of 0 is 4.783666
weight of 1 is -0.752400
weight of 2 is -8.088889
weight of 3 is -3.000000
not used!
weight of 0 is 4.228817
weight of 1 is -0.752457
weight of 2 is -8.088889
weight of 3 is -4.000000
not used!
deny
deny
deny
deny
deny
deny
deny
deny
deny
deny
deny
deny
deny
deny
deny
deny
deny
deny
deny
deny
deny
deny
deny
deny
deny
deny
deny
deny
deny
deny
deny
deny
deny
deny
deny
deny
deny
deny
deny
deny
weight of 0 is 4.783849
weight of 1 is -0.683883
weight of 2 is -6.844444
weight of 3 is -3.000000
used!
weight of 0 is 5.338881
weight of 1 is -0.615310
weight of 2 is -5.600000
weight of 3 is -2.000000
used!
deny
deny
weight of 0 is 5.357537
weight of 1 is -0.540800
weight of 2 is -5.577778
weight of 3 is -1.000000
used!
weight of 0 is 5.376193
weight of 1 is -0.466289
weight of 2 is -5.555556
weight of 3 is 0.000000
used!
accept
accept
accept
accept
weight of 0 is 5.931224
weight of 1 is -0.397758
weight of 2 is -5.022222
weight of 3 is 1.000000
used!
weight of 0 is 6.486256
weight of 1 is -0.329227
weight of 2 is -4.488889
weight of 3 is 2.000000
used!
accept
accept
weight of 0 is 6.466792
weight of 1 is -1.542942
weight of 2 is -4.488889
weight of 3 is 1.000000
not used!
weight of 0 is 5.912604
weight of 1 is -1.612318
weight of 2 is -4.844444
weight of 3 is 0.000000
not used!
deny
deny
deny
deny
deny
deny
Exiting @ tick 24043288000 because a thread reached the max instruction count
