
---------- Begin Simulation Statistics ----------
final_tick                                81973785000                       # Number of ticks from beginning of simulation (restored from checkpoints and never reset)
host_inst_rate                                 296484                       # Simulator instruction rate (inst/s)
host_mem_usage                                 759928                       # Number of bytes of host memory used
host_op_rate                                   563163                       # Simulator op (including micro ops) rate (op/s)
host_seconds                                   143.93                       # Real time elapsed on the host
host_tick_rate                              569544920                       # Simulator tick rate (ticks/s)
sim_freq                                 1000000000000                       # Frequency of simulated ticks
sim_insts                                    42672466                       # Number of instructions simulated
sim_ops                                      81055252                       # Number of ops (including micro ops) simulated
sim_seconds                                  0.081974                       # Number of seconds simulated
sim_ticks                                 81973785000                       # Number of ticks simulated
system.clk_domain.clock                          1000                       # Clock period in ticks
system.cpu.apic_clk_domain.clock                16000                       # Clock period in ticks
system.cpu.branchPred.BTBCorrect                    0                       # Number of correct BTB predictions (this stat may not work properly.
system.cpu.branchPred.BTBHitPct                   nan                       # BTB Hit Percentage
system.cpu.branchPred.BTBHits                       0                       # Number of BTB hits
system.cpu.branchPred.BTBLookups                    0                       # Number of BTB lookups
system.cpu.branchPred.RASInCorrect                  0                       # Number of incorrect RAS predictions.
system.cpu.branchPred.condIncorrect                 1                       # Number of conditional branches incorrect
system.cpu.branchPred.condPredicted                 1                       # Number of conditional branches predicted
system.cpu.branchPred.indirectHits                  0                       # Number of indirect target hits.
system.cpu.branchPred.indirectLookups               0                       # Number of indirect predictor lookups.
system.cpu.branchPred.indirectMisses                0                       # Number of indirect misses.
system.cpu.branchPred.lookups                       1                       # Number of BP lookups
system.cpu.branchPred.usedRAS                       0                       # Number of times the RAS was used to get a target.
system.cpu.branchPredindirectMispredicted            0                       # Number of mispredicted indirect branches.
system.cpu.cc_regfile_reads                         5                       # number of cc regfile reads
system.cpu.commit.amos                              0                       # Number of atomic instructions committed
system.cpu.commit.branchMispredicts                 1                       # The number of times a branch was mispredicted
system.cpu.commit.branches                          1                       # Number of branches committed
system.cpu.commit.bw_lim_events                     0                       # number cycles where commit BW limit reached
system.cpu.commit.commitSquashedInsts              24                       # The number of squashed insts skipped by commit
system.cpu.commit.committedInsts                    3                       # Number of instructions committed
system.cpu.commit.committedOps                      8                       # Number of ops (including micro ops) committed
system.cpu.commit.committed_per_cycle::samples           55                       # Number of insts commited each cycle
system.cpu.commit.committed_per_cycle::mean     0.145455                       # Number of insts commited each cycle
system.cpu.commit.committed_per_cycle::stdev     0.848052                       # Number of insts commited each cycle
system.cpu.commit.committed_per_cycle::underflows            0      0.00%      0.00% # Number of insts commited each cycle
system.cpu.commit.committed_per_cycle::0           53     96.36%     96.36% # Number of insts commited each cycle
system.cpu.commit.committed_per_cycle::1            0      0.00%     96.36% # Number of insts commited each cycle
system.cpu.commit.committed_per_cycle::2            1      1.82%     98.18% # Number of insts commited each cycle
system.cpu.commit.committed_per_cycle::3            0      0.00%     98.18% # Number of insts commited each cycle
system.cpu.commit.committed_per_cycle::4            0      0.00%     98.18% # Number of insts commited each cycle
system.cpu.commit.committed_per_cycle::5            0      0.00%     98.18% # Number of insts commited each cycle
system.cpu.commit.committed_per_cycle::6            1      1.82%    100.00% # Number of insts commited each cycle
system.cpu.commit.committed_per_cycle::7            0      0.00%    100.00% # Number of insts commited each cycle
system.cpu.commit.committed_per_cycle::8            0      0.00%    100.00% # Number of insts commited each cycle
system.cpu.commit.committed_per_cycle::overflows            0      0.00%    100.00% # Number of insts commited each cycle
system.cpu.commit.committed_per_cycle::min_value            0                       # Number of insts commited each cycle
system.cpu.commit.committed_per_cycle::max_value            6                       # Number of insts commited each cycle
system.cpu.commit.committed_per_cycle::total           55                       # Number of insts commited each cycle
system.cpu.commit.fp_insts                          0                       # Number of committed floating point instructions.
system.cpu.commit.function_calls                    1                       # Number of function calls committed.
system.cpu.commit.int_insts                         8                       # Number of committed integer instructions.
system.cpu.commit.loads                             0                       # Number of loads committed
system.cpu.commit.membars                           0                       # Number of memory barriers committed
system.cpu.commit.op_class_0::No_OpClass            0      0.00%      0.00% # Class of committed instruction
system.cpu.commit.op_class_0::IntAlu                6     75.00%     75.00% # Class of committed instruction
system.cpu.commit.op_class_0::IntMult               0      0.00%     75.00% # Class of committed instruction
system.cpu.commit.op_class_0::IntDiv                0      0.00%     75.00% # Class of committed instruction
system.cpu.commit.op_class_0::FloatAdd              0      0.00%     75.00% # Class of committed instruction
system.cpu.commit.op_class_0::FloatCmp              0      0.00%     75.00% # Class of committed instruction
system.cpu.commit.op_class_0::FloatCvt              0      0.00%     75.00% # Class of committed instruction
system.cpu.commit.op_class_0::FloatMult             0      0.00%     75.00% # Class of committed instruction
system.cpu.commit.op_class_0::FloatMultAcc            0      0.00%     75.00% # Class of committed instruction
system.cpu.commit.op_class_0::FloatDiv              0      0.00%     75.00% # Class of committed instruction
system.cpu.commit.op_class_0::FloatMisc             0      0.00%     75.00% # Class of committed instruction
system.cpu.commit.op_class_0::FloatSqrt             0      0.00%     75.00% # Class of committed instruction
system.cpu.commit.op_class_0::SimdAdd               0      0.00%     75.00% # Class of committed instruction
system.cpu.commit.op_class_0::SimdAddAcc            0      0.00%     75.00% # Class of committed instruction
system.cpu.commit.op_class_0::SimdAlu               0      0.00%     75.00% # Class of committed instruction
system.cpu.commit.op_class_0::SimdCmp               0      0.00%     75.00% # Class of committed instruction
system.cpu.commit.op_class_0::SimdCvt               0      0.00%     75.00% # Class of committed instruction
system.cpu.commit.op_class_0::SimdMisc              0      0.00%     75.00% # Class of committed instruction
system.cpu.commit.op_class_0::SimdMult              0      0.00%     75.00% # Class of committed instruction
system.cpu.commit.op_class_0::SimdMultAcc            0      0.00%     75.00% # Class of committed instruction
system.cpu.commit.op_class_0::SimdShift             0      0.00%     75.00% # Class of committed instruction
system.cpu.commit.op_class_0::SimdShiftAcc            0      0.00%     75.00% # Class of committed instruction
system.cpu.commit.op_class_0::SimdDiv               0      0.00%     75.00% # Class of committed instruction
system.cpu.commit.op_class_0::SimdSqrt              0      0.00%     75.00% # Class of committed instruction
system.cpu.commit.op_class_0::SimdFloatAdd            0      0.00%     75.00% # Class of committed instruction
system.cpu.commit.op_class_0::SimdFloatAlu            0      0.00%     75.00% # Class of committed instruction
system.cpu.commit.op_class_0::SimdFloatCmp            0      0.00%     75.00% # Class of committed instruction
system.cpu.commit.op_class_0::SimdFloatCvt            0      0.00%     75.00% # Class of committed instruction
system.cpu.commit.op_class_0::SimdFloatDiv            0      0.00%     75.00% # Class of committed instruction
system.cpu.commit.op_class_0::SimdFloatMisc            0      0.00%     75.00% # Class of committed instruction
system.cpu.commit.op_class_0::SimdFloatMult            0      0.00%     75.00% # Class of committed instruction
system.cpu.commit.op_class_0::SimdFloatMultAcc            0      0.00%     75.00% # Class of committed instruction
system.cpu.commit.op_class_0::SimdFloatSqrt            0      0.00%     75.00% # Class of committed instruction
system.cpu.commit.op_class_0::SimdReduceAdd            0      0.00%     75.00% # Class of committed instruction
system.cpu.commit.op_class_0::SimdReduceAlu            0      0.00%     75.00% # Class of committed instruction
system.cpu.commit.op_class_0::SimdReduceCmp            0      0.00%     75.00% # Class of committed instruction
system.cpu.commit.op_class_0::SimdFloatReduceAdd            0      0.00%     75.00% # Class of committed instruction
system.cpu.commit.op_class_0::SimdFloatReduceCmp            0      0.00%     75.00% # Class of committed instruction
system.cpu.commit.op_class_0::SimdAes               0      0.00%     75.00% # Class of committed instruction
system.cpu.commit.op_class_0::SimdAesMix            0      0.00%     75.00% # Class of committed instruction
system.cpu.commit.op_class_0::SimdSha1Hash            0      0.00%     75.00% # Class of committed instruction
system.cpu.commit.op_class_0::SimdSha1Hash2            0      0.00%     75.00% # Class of committed instruction
system.cpu.commit.op_class_0::SimdSha256Hash            0      0.00%     75.00% # Class of committed instruction
system.cpu.commit.op_class_0::SimdSha256Hash2            0      0.00%     75.00% # Class of committed instruction
system.cpu.commit.op_class_0::SimdShaSigma2            0      0.00%     75.00% # Class of committed instruction
system.cpu.commit.op_class_0::SimdShaSigma3            0      0.00%     75.00% # Class of committed instruction
system.cpu.commit.op_class_0::SimdPredAlu            0      0.00%     75.00% # Class of committed instruction
system.cpu.commit.op_class_0::MemRead               0      0.00%     75.00% # Class of committed instruction
system.cpu.commit.op_class_0::MemWrite              2     25.00%    100.00% # Class of committed instruction
system.cpu.commit.op_class_0::FloatMemRead            0      0.00%    100.00% # Class of committed instruction
system.cpu.commit.op_class_0::FloatMemWrite            0      0.00%    100.00% # Class of committed instruction
system.cpu.commit.op_class_0::IprAccess             0      0.00%    100.00% # Class of committed instruction
system.cpu.commit.op_class_0::InstPrefetch            0      0.00%    100.00% # Class of committed instruction
system.cpu.commit.op_class_0::total                 8                       # Class of committed instruction
system.cpu.commit.refs                              2                       # Number of memory references committed
system.cpu.commit.swp_count                         0                       # Number of s/w prefetches committed
system.cpu.commit.vec_insts                         0                       # Number of committed Vector instructions.
system.cpu.committedInsts                           3                       # Number of Instructions Simulated
system.cpu.committedOps                             8                       # Number of Ops (including micro ops) Simulated
system.cpu.cpi                              99.333333                       # CPI: Cycles Per Instruction
system.cpu.cpi_total                        99.333333                       # CPI: Total CPI of All Threads
system.cpu.dcache.ReadReq_accesses::.cpu.data            1                       # number of ReadReq accesses(hits+misses)
system.cpu.dcache.ReadReq_accesses::.switch_cpus.data      4263269                       # number of ReadReq accesses(hits+misses)
system.cpu.dcache.ReadReq_accesses::.switch_cpus_1.data      3769828                       # number of ReadReq accesses(hits+misses)
system.cpu.dcache.ReadReq_accesses::total      8033098                       # number of ReadReq accesses(hits+misses)
system.cpu.dcache.ReadReq_avg_miss_latency::.cpu.data       206000                       # average ReadReq miss latency
system.cpu.dcache.ReadReq_avg_miss_latency::.switch_cpus.data 87383.766234                       # average ReadReq miss latency
system.cpu.dcache.ReadReq_avg_miss_latency::.switch_cpus_1.data 71849.167483                       # average ReadReq miss latency
system.cpu.dcache.ReadReq_avg_miss_latency::total 83546.075085                       # average ReadReq miss latency
system.cpu.dcache.ReadReq_avg_mshr_miss_latency::.cpu.data       204000                       # average ReadReq mshr miss latency
system.cpu.dcache.ReadReq_avg_mshr_miss_latency::.switch_cpus.data 85383.766234                       # average ReadReq mshr miss latency
system.cpu.dcache.ReadReq_avg_mshr_miss_latency::.switch_cpus_1.data 70981.049563                       # average ReadReq mshr miss latency
system.cpu.dcache.ReadReq_avg_mshr_miss_latency::total 82792.407752                       # average ReadReq mshr miss latency
system.cpu.dcache.ReadReq_hits::.switch_cpus.data      4260189                       # number of ReadReq hits
system.cpu.dcache.ReadReq_hits::.switch_cpus_1.data      3768807                       # number of ReadReq hits
system.cpu.dcache.ReadReq_hits::total         8028996                       # number of ReadReq hits
system.cpu.dcache.ReadReq_miss_latency::.cpu.data       206000                       # number of ReadReq miss cycles
system.cpu.dcache.ReadReq_miss_latency::.switch_cpus.data    269142000                       # number of ReadReq miss cycles
system.cpu.dcache.ReadReq_miss_latency::.switch_cpus_1.data     73358000                       # number of ReadReq miss cycles
system.cpu.dcache.ReadReq_miss_latency::total    342706000                       # number of ReadReq miss cycles
system.cpu.dcache.ReadReq_miss_rate::.cpu.data            1                       # miss rate for ReadReq accesses
system.cpu.dcache.ReadReq_miss_rate::.switch_cpus.data     0.000722                       # miss rate for ReadReq accesses
system.cpu.dcache.ReadReq_miss_rate::.switch_cpus_1.data     0.000271                       # miss rate for ReadReq accesses
system.cpu.dcache.ReadReq_miss_rate::total     0.000511                       # miss rate for ReadReq accesses
system.cpu.dcache.ReadReq_misses::.cpu.data            1                       # number of ReadReq misses
system.cpu.dcache.ReadReq_misses::.switch_cpus.data         3080                       # number of ReadReq misses
system.cpu.dcache.ReadReq_misses::.switch_cpus_1.data         1021                       # number of ReadReq misses
system.cpu.dcache.ReadReq_misses::total          4102                       # number of ReadReq misses
system.cpu.dcache.ReadReq_mshr_hits::.switch_cpus_1.data          335                       # number of ReadReq MSHR hits
system.cpu.dcache.ReadReq_mshr_hits::total          335                       # number of ReadReq MSHR hits
system.cpu.dcache.ReadReq_mshr_miss_latency::.cpu.data       204000                       # number of ReadReq MSHR miss cycles
system.cpu.dcache.ReadReq_mshr_miss_latency::.switch_cpus.data    262982000                       # number of ReadReq MSHR miss cycles
system.cpu.dcache.ReadReq_mshr_miss_latency::.switch_cpus_1.data     48693000                       # number of ReadReq MSHR miss cycles
system.cpu.dcache.ReadReq_mshr_miss_latency::total    311879000                       # number of ReadReq MSHR miss cycles
system.cpu.dcache.ReadReq_mshr_miss_rate::.cpu.data            1                       # mshr miss rate for ReadReq accesses
system.cpu.dcache.ReadReq_mshr_miss_rate::.switch_cpus.data     0.000722                       # mshr miss rate for ReadReq accesses
system.cpu.dcache.ReadReq_mshr_miss_rate::.switch_cpus_1.data     0.000182                       # mshr miss rate for ReadReq accesses
system.cpu.dcache.ReadReq_mshr_miss_rate::total     0.000469                       # mshr miss rate for ReadReq accesses
system.cpu.dcache.ReadReq_mshr_misses::.cpu.data            1                       # number of ReadReq MSHR misses
system.cpu.dcache.ReadReq_mshr_misses::.switch_cpus.data         3080                       # number of ReadReq MSHR misses
system.cpu.dcache.ReadReq_mshr_misses::.switch_cpus_1.data          686                       # number of ReadReq MSHR misses
system.cpu.dcache.ReadReq_mshr_misses::total         3767                       # number of ReadReq MSHR misses
system.cpu.dcache.WriteReq_accesses::.cpu.data            2                       # number of WriteReq accesses(hits+misses)
system.cpu.dcache.WriteReq_accesses::.switch_cpus.data       791471                       # number of WriteReq accesses(hits+misses)
system.cpu.dcache.WriteReq_accesses::.switch_cpus_1.data       712666                       # number of WriteReq accesses(hits+misses)
system.cpu.dcache.WriteReq_accesses::total      1504139                       # number of WriteReq accesses(hits+misses)
system.cpu.dcache.WriteReq_avg_miss_latency::.cpu.data       126000                       # average WriteReq miss latency
system.cpu.dcache.WriteReq_avg_miss_latency::.switch_cpus.data 166110.944614                       # average WriteReq miss latency
system.cpu.dcache.WriteReq_avg_miss_latency::.switch_cpus_1.data 110881.167919                       # average WriteReq miss latency
system.cpu.dcache.WriteReq_avg_miss_latency::total 140103.189455                       # average WriteReq miss latency
system.cpu.dcache.WriteReq_avg_mshr_miss_latency::.cpu.data       124000                       # average WriteReq mshr miss latency
system.cpu.dcache.WriteReq_avg_mshr_miss_latency::.switch_cpus.data 164110.944614                       # average WriteReq mshr miss latency
system.cpu.dcache.WriteReq_avg_mshr_miss_latency::.switch_cpus_1.data 108877.080176                       # average WriteReq mshr miss latency
system.cpu.dcache.WriteReq_avg_mshr_miss_latency::total 138102.155795                       # average WriteReq mshr miss latency
system.cpu.dcache.WriteReq_hits::.cpu.data            1                       # number of WriteReq hits
system.cpu.dcache.WriteReq_hits::.switch_cpus.data       774120                       # number of WriteReq hits
system.cpu.dcache.WriteReq_hits::.switch_cpus_1.data       697224                       # number of WriteReq hits
system.cpu.dcache.WriteReq_hits::total        1471345                       # number of WriteReq hits
system.cpu.dcache.WriteReq_miss_latency::.cpu.data       126000                       # number of WriteReq miss cycles
system.cpu.dcache.WriteReq_miss_latency::.switch_cpus.data   2882191000                       # number of WriteReq miss cycles
system.cpu.dcache.WriteReq_miss_latency::.switch_cpus_1.data   1712226995                       # number of WriteReq miss cycles
system.cpu.dcache.WriteReq_miss_latency::total   4594543995                       # number of WriteReq miss cycles
system.cpu.dcache.WriteReq_miss_rate::.cpu.data     0.500000                       # miss rate for WriteReq accesses
system.cpu.dcache.WriteReq_miss_rate::.switch_cpus.data     0.021922                       # miss rate for WriteReq accesses
system.cpu.dcache.WriteReq_miss_rate::.switch_cpus_1.data     0.021668                       # miss rate for WriteReq accesses
system.cpu.dcache.WriteReq_miss_rate::total     0.021803                       # miss rate for WriteReq accesses
system.cpu.dcache.WriteReq_misses::.cpu.data            1                       # number of WriteReq misses
system.cpu.dcache.WriteReq_misses::.switch_cpus.data        17351                       # number of WriteReq misses
system.cpu.dcache.WriteReq_misses::.switch_cpus_1.data        15442                       # number of WriteReq misses
system.cpu.dcache.WriteReq_misses::total        32794                       # number of WriteReq misses
system.cpu.dcache.WriteReq_mshr_hits::.switch_cpus_1.data            1                       # number of WriteReq MSHR hits
system.cpu.dcache.WriteReq_mshr_hits::total            1                       # number of WriteReq MSHR hits
system.cpu.dcache.WriteReq_mshr_miss_latency::.cpu.data       124000                       # number of WriteReq MSHR miss cycles
system.cpu.dcache.WriteReq_mshr_miss_latency::.switch_cpus.data   2847489000                       # number of WriteReq MSHR miss cycles
system.cpu.dcache.WriteReq_mshr_miss_latency::.switch_cpus_1.data   1681170995                       # number of WriteReq MSHR miss cycles
system.cpu.dcache.WriteReq_mshr_miss_latency::total   4528783995                       # number of WriteReq MSHR miss cycles
system.cpu.dcache.WriteReq_mshr_miss_rate::.cpu.data     0.500000                       # mshr miss rate for WriteReq accesses
system.cpu.dcache.WriteReq_mshr_miss_rate::.switch_cpus.data     0.021922                       # mshr miss rate for WriteReq accesses
system.cpu.dcache.WriteReq_mshr_miss_rate::.switch_cpus_1.data     0.021667                       # mshr miss rate for WriteReq accesses
system.cpu.dcache.WriteReq_mshr_miss_rate::total     0.021802                       # mshr miss rate for WriteReq accesses
system.cpu.dcache.WriteReq_mshr_misses::.cpu.data            1                       # number of WriteReq MSHR misses
system.cpu.dcache.WriteReq_mshr_misses::.switch_cpus.data        17351                       # number of WriteReq MSHR misses
system.cpu.dcache.WriteReq_mshr_misses::.switch_cpus_1.data        15441                       # number of WriteReq MSHR misses
system.cpu.dcache.WriteReq_mshr_misses::total        32793                       # number of WriteReq MSHR misses
system.cpu.dcache.avg_blocked_cycles::no_mshrs    13.813830                       # average number of cycles each access was blocked
system.cpu.dcache.avg_blocked_cycles::no_targets          nan                       # average number of cycles each access was blocked
system.cpu.dcache.blocked::no_mshrs               188                       # number of cycles access was blocked
system.cpu.dcache.blocked::no_targets               0                       # number of cycles access was blocked
system.cpu.dcache.blocked_cycles::no_mshrs         2597                       # number of cycles access was blocked
system.cpu.dcache.blocked_cycles::no_targets            0                       # number of cycles access was blocked
system.cpu.dcache.demand_accesses::.cpu.data            3                       # number of demand (read+write) accesses
system.cpu.dcache.demand_accesses::.switch_cpus.data      5054740                       # number of demand (read+write) accesses
system.cpu.dcache.demand_accesses::.switch_cpus_1.data      4482494                       # number of demand (read+write) accesses
system.cpu.dcache.demand_accesses::total      9537237                       # number of demand (read+write) accesses
system.cpu.dcache.demand_avg_miss_latency::.cpu.data       166000                       # average overall miss latency
system.cpu.dcache.demand_avg_miss_latency::.switch_cpus.data 154242.719397                       # average overall miss latency
system.cpu.dcache.demand_avg_miss_latency::.switch_cpus_1.data 108460.486849                       # average overall miss latency
system.cpu.dcache.demand_avg_miss_latency::total 133815.318598                       # average overall miss latency
system.cpu.dcache.demand_avg_mshr_miss_latency::.cpu.data       164000                       # average overall mshr miss latency
system.cpu.dcache.demand_avg_mshr_miss_latency::.switch_cpus.data 152242.719397                       # average overall mshr miss latency
system.cpu.dcache.demand_avg_mshr_miss_latency::.switch_cpus_1.data 107265.083090                       # average overall mshr miss latency
system.cpu.dcache.demand_avg_mshr_miss_latency::total 132403.254787                       # average overall mshr miss latency
system.cpu.dcache.demand_hits::.cpu.data            1                       # number of demand (read+write) hits
system.cpu.dcache.demand_hits::.switch_cpus.data      5034309                       # number of demand (read+write) hits
system.cpu.dcache.demand_hits::.switch_cpus_1.data      4466031                       # number of demand (read+write) hits
system.cpu.dcache.demand_hits::total          9500341                       # number of demand (read+write) hits
system.cpu.dcache.demand_miss_latency::.cpu.data       332000                       # number of demand (read+write) miss cycles
system.cpu.dcache.demand_miss_latency::.switch_cpus.data   3151333000                       # number of demand (read+write) miss cycles
system.cpu.dcache.demand_miss_latency::.switch_cpus_1.data   1785584995                       # number of demand (read+write) miss cycles
system.cpu.dcache.demand_miss_latency::total   4937249995                       # number of demand (read+write) miss cycles
system.cpu.dcache.demand_miss_rate::.cpu.data     0.666667                       # miss rate for demand accesses
system.cpu.dcache.demand_miss_rate::.switch_cpus.data     0.004042                       # miss rate for demand accesses
system.cpu.dcache.demand_miss_rate::.switch_cpus_1.data     0.003673                       # miss rate for demand accesses
system.cpu.dcache.demand_miss_rate::total     0.003869                       # miss rate for demand accesses
system.cpu.dcache.demand_misses::.cpu.data            2                       # number of demand (read+write) misses
system.cpu.dcache.demand_misses::.switch_cpus.data        20431                       # number of demand (read+write) misses
system.cpu.dcache.demand_misses::.switch_cpus_1.data        16463                       # number of demand (read+write) misses
system.cpu.dcache.demand_misses::total          36896                       # number of demand (read+write) misses
system.cpu.dcache.demand_mshr_hits::.switch_cpus_1.data          336                       # number of demand (read+write) MSHR hits
system.cpu.dcache.demand_mshr_hits::total          336                       # number of demand (read+write) MSHR hits
system.cpu.dcache.demand_mshr_miss_latency::.cpu.data       328000                       # number of demand (read+write) MSHR miss cycles
system.cpu.dcache.demand_mshr_miss_latency::.switch_cpus.data   3110471000                       # number of demand (read+write) MSHR miss cycles
system.cpu.dcache.demand_mshr_miss_latency::.switch_cpus_1.data   1729863995                       # number of demand (read+write) MSHR miss cycles
system.cpu.dcache.demand_mshr_miss_latency::total   4840662995                       # number of demand (read+write) MSHR miss cycles
system.cpu.dcache.demand_mshr_miss_rate::.cpu.data     0.666667                       # mshr miss rate for demand accesses
system.cpu.dcache.demand_mshr_miss_rate::.switch_cpus.data     0.004042                       # mshr miss rate for demand accesses
system.cpu.dcache.demand_mshr_miss_rate::.switch_cpus_1.data     0.003598                       # mshr miss rate for demand accesses
system.cpu.dcache.demand_mshr_miss_rate::total     0.003833                       # mshr miss rate for demand accesses
system.cpu.dcache.demand_mshr_misses::.cpu.data            2                       # number of demand (read+write) MSHR misses
system.cpu.dcache.demand_mshr_misses::.switch_cpus.data        20431                       # number of demand (read+write) MSHR misses
system.cpu.dcache.demand_mshr_misses::.switch_cpus_1.data        16127                       # number of demand (read+write) MSHR misses
system.cpu.dcache.demand_mshr_misses::total        36560                       # number of demand (read+write) MSHR misses
system.cpu.dcache.overall_accesses::.cpu.data            3                       # number of overall (read+write) accesses
system.cpu.dcache.overall_accesses::.switch_cpus.data      5054740                       # number of overall (read+write) accesses
system.cpu.dcache.overall_accesses::.switch_cpus_1.data      4482494                       # number of overall (read+write) accesses
system.cpu.dcache.overall_accesses::total      9537237                       # number of overall (read+write) accesses
system.cpu.dcache.overall_avg_miss_latency::.cpu.data       166000                       # average overall miss latency
system.cpu.dcache.overall_avg_miss_latency::.switch_cpus.data 154242.719397                       # average overall miss latency
system.cpu.dcache.overall_avg_miss_latency::.switch_cpus_1.data 108460.486849                       # average overall miss latency
system.cpu.dcache.overall_avg_miss_latency::total 133815.318598                       # average overall miss latency
system.cpu.dcache.overall_avg_mshr_miss_latency::.cpu.data       164000                       # average overall mshr miss latency
system.cpu.dcache.overall_avg_mshr_miss_latency::.switch_cpus.data 152242.719397                       # average overall mshr miss latency
system.cpu.dcache.overall_avg_mshr_miss_latency::.switch_cpus_1.data 107265.083090                       # average overall mshr miss latency
system.cpu.dcache.overall_avg_mshr_miss_latency::total 132403.254787                       # average overall mshr miss latency
system.cpu.dcache.overall_hits::.cpu.data            1                       # number of overall hits
system.cpu.dcache.overall_hits::.switch_cpus.data      5034309                       # number of overall hits
system.cpu.dcache.overall_hits::.switch_cpus_1.data      4466031                       # number of overall hits
system.cpu.dcache.overall_hits::total         9500341                       # number of overall hits
system.cpu.dcache.overall_miss_latency::.cpu.data       332000                       # number of overall miss cycles
system.cpu.dcache.overall_miss_latency::.switch_cpus.data   3151333000                       # number of overall miss cycles
system.cpu.dcache.overall_miss_latency::.switch_cpus_1.data   1785584995                       # number of overall miss cycles
system.cpu.dcache.overall_miss_latency::total   4937249995                       # number of overall miss cycles
system.cpu.dcache.overall_miss_rate::.cpu.data     0.666667                       # miss rate for overall accesses
system.cpu.dcache.overall_miss_rate::.switch_cpus.data     0.004042                       # miss rate for overall accesses
system.cpu.dcache.overall_miss_rate::.switch_cpus_1.data     0.003673                       # miss rate for overall accesses
system.cpu.dcache.overall_miss_rate::total     0.003869                       # miss rate for overall accesses
system.cpu.dcache.overall_misses::.cpu.data            2                       # number of overall misses
system.cpu.dcache.overall_misses::.switch_cpus.data        20431                       # number of overall misses
system.cpu.dcache.overall_misses::.switch_cpus_1.data        16463                       # number of overall misses
system.cpu.dcache.overall_misses::total         36896                       # number of overall misses
system.cpu.dcache.overall_mshr_hits::.switch_cpus_1.data          336                       # number of overall MSHR hits
system.cpu.dcache.overall_mshr_hits::total          336                       # number of overall MSHR hits
system.cpu.dcache.overall_mshr_miss_latency::.cpu.data       328000                       # number of overall MSHR miss cycles
system.cpu.dcache.overall_mshr_miss_latency::.switch_cpus.data   3110471000                       # number of overall MSHR miss cycles
system.cpu.dcache.overall_mshr_miss_latency::.switch_cpus_1.data   1729863995                       # number of overall MSHR miss cycles
system.cpu.dcache.overall_mshr_miss_latency::total   4840662995                       # number of overall MSHR miss cycles
system.cpu.dcache.overall_mshr_miss_rate::.cpu.data     0.666667                       # mshr miss rate for overall accesses
system.cpu.dcache.overall_mshr_miss_rate::.switch_cpus.data     0.004042                       # mshr miss rate for overall accesses
system.cpu.dcache.overall_mshr_miss_rate::.switch_cpus_1.data     0.003598                       # mshr miss rate for overall accesses
system.cpu.dcache.overall_mshr_miss_rate::total     0.003833                       # mshr miss rate for overall accesses
system.cpu.dcache.overall_mshr_misses::.cpu.data            2                       # number of overall MSHR misses
system.cpu.dcache.overall_mshr_misses::.switch_cpus.data        20431                       # number of overall MSHR misses
system.cpu.dcache.overall_mshr_misses::.switch_cpus_1.data        16127                       # number of overall MSHR misses
system.cpu.dcache.overall_mshr_misses::total        36560                       # number of overall MSHR misses
system.cpu.dcache.pwrStateResidencyTicks::UNDEFINED  81973785000                       # Cumulative time (in ticks) in various power states
system.cpu.dcache.replacements                  35536                       # number of replacements
system.cpu.dcache.tags.age_task_id_blocks_1024::0           70                       # Occupied blocks per task id
system.cpu.dcache.tags.age_task_id_blocks_1024::1          504                       # Occupied blocks per task id
system.cpu.dcache.tags.age_task_id_blocks_1024::2          444                       # Occupied blocks per task id
system.cpu.dcache.tags.age_task_id_blocks_1024::3            1                       # Occupied blocks per task id
system.cpu.dcache.tags.age_task_id_blocks_1024::4            5                       # Occupied blocks per task id
system.cpu.dcache.tags.avg_refs            260.856154                       # Average number of references to valid blocks.
system.cpu.dcache.tags.data_accesses         19111034                       # Number of data accesses
system.cpu.dcache.tags.occ_blocks::.cpu.data     0.005228                       # Average occupied blocks per requestor
system.cpu.dcache.tags.occ_blocks::.switch_cpus.data   901.915891                       # Average occupied blocks per requestor
system.cpu.dcache.tags.occ_blocks::.switch_cpus_1.data   119.831256                       # Average occupied blocks per requestor
system.cpu.dcache.tags.occ_percent::.cpu.data     0.000005                       # Average percentage of cache occupancy
system.cpu.dcache.tags.occ_percent::.switch_cpus.data     0.880777                       # Average percentage of cache occupancy
system.cpu.dcache.tags.occ_percent::.switch_cpus_1.data     0.117023                       # Average percentage of cache occupancy
system.cpu.dcache.tags.occ_percent::total     0.997805                       # Average percentage of cache occupancy
system.cpu.dcache.tags.occ_task_id_blocks::1024         1024                       # Occupied blocks per task id
system.cpu.dcache.tags.occ_task_id_percent::1024            1                       # Percentage of cache occupancy per task id
system.cpu.dcache.tags.pwrStateResidencyTicks::UNDEFINED  81973785000                       # Cumulative time (in ticks) in various power states
system.cpu.dcache.tags.sampled_refs             36560                       # Sample count of references to valid blocks.
system.cpu.dcache.tags.tag_accesses          19111034                       # Number of tag accesses
system.cpu.dcache.tags.tagsinuse          1021.752375                       # Cycle average of tags in use
system.cpu.dcache.tags.total_refs             9536901                       # Total number of references to valid blocks.
system.cpu.dcache.tags.warmup_cycle            246000                       # Cycle when the warmup percentage was hit.
system.cpu.dcache.writebacks::.writebacks        32880                       # number of writebacks
system.cpu.dcache.writebacks::total             32880                       # number of writebacks
system.cpu.decode.BlockedCycles                     2                       # Number of cycles decode is blocked
system.cpu.decode.DecodedInsts                     32                       # Number of instructions handled by decode
system.cpu.decode.IdleCycles                       50                       # Number of cycles decode is idle
system.cpu.decode.RunCycles                         5                       # Number of cycles decode is running
system.cpu.decode.SquashCycles                      3                       # Number of cycles decode is squashing
system.cpu.dtb.rdAccesses                           2                       # TLB accesses on read requests
system.cpu.dtb.rdMisses                             1                       # TLB misses on read requests
system.cpu.dtb.walker.pwrStateResidencyTicks::UNDEFINED  81973785000                       # Cumulative time (in ticks) in various power states
system.cpu.dtb.wrAccesses                           5                       # TLB accesses on write requests
system.cpu.dtb.wrMisses                             1                       # TLB misses on write requests
system.cpu.dtb_walker_cache.avg_blocked_cycles::no_mshrs          nan                       # average number of cycles each access was blocked
system.cpu.dtb_walker_cache.avg_blocked_cycles::no_targets          nan                       # average number of cycles each access was blocked
system.cpu.dtb_walker_cache.blocked::no_mshrs            0                       # number of cycles access was blocked
system.cpu.dtb_walker_cache.blocked::no_targets            0                       # number of cycles access was blocked
system.cpu.dtb_walker_cache.blocked_cycles::no_mshrs            0                       # number of cycles access was blocked
system.cpu.dtb_walker_cache.blocked_cycles::no_targets            0                       # number of cycles access was blocked
system.cpu.dtb_walker_cache.pwrStateResidencyTicks::UNDEFINED  81973785000                       # Cumulative time (in ticks) in various power states
system.cpu.dtb_walker_cache.replacements            0                       # number of replacements
system.cpu.dtb_walker_cache.tags.avg_refs          nan                       # Average number of references to valid blocks.
system.cpu.dtb_walker_cache.tags.data_accesses            0                       # Number of data accesses
system.cpu.dtb_walker_cache.tags.pwrStateResidencyTicks::UNDEFINED  81973785000                       # Cumulative time (in ticks) in various power states
system.cpu.dtb_walker_cache.tags.sampled_refs            0                       # Sample count of references to valid blocks.
system.cpu.dtb_walker_cache.tags.tag_accesses            0                       # Number of tag accesses
system.cpu.dtb_walker_cache.tags.tagsinuse            0                       # Cycle average of tags in use
system.cpu.dtb_walker_cache.tags.total_refs            0                       # Total number of references to valid blocks.
system.cpu.dtb_walker_cache.tags.warmup_cycle            0                       # Cycle when the warmup percentage was hit.
system.cpu.fetch.Branches                           1                       # Number of branches that fetch encountered
system.cpu.fetch.CacheLines                         5                       # Number of cache lines fetched
system.cpu.fetch.Cycles                             5                       # Number of cycles fetch has run and was not squashing or blocked
system.cpu.fetch.IcacheSquashes                     3                       # Number of outstanding Icache misses that were squashed
system.cpu.fetch.Insts                             18                       # Number of instructions fetch has processed
system.cpu.fetch.PendingDrainCycles                 6                       # Number of cycles fetch has spent waiting on pipes to drain
system.cpu.fetch.SquashCycles                       5                       # Number of cycles fetch has spent squashing
system.cpu.fetch.branchRate                  0.003356                       # Number of branch fetches per cycle
system.cpu.fetch.icacheStallCycles                 47                       # Number of cycles fetch is stalled on an Icache miss
system.cpu.fetch.rate                        0.060403                       # Number of inst fetches per cycle
system.cpu.fetch.rateDist::samples                 60                       # Number of instructions fetched each cycle (Total)
system.cpu.fetch.rateDist::mean              0.533333                       # Number of instructions fetched each cycle (Total)
system.cpu.fetch.rateDist::stdev             1.908648                       # Number of instructions fetched each cycle (Total)
system.cpu.fetch.rateDist::underflows               0      0.00%      0.00% # Number of instructions fetched each cycle (Total)
system.cpu.fetch.rateDist::0                       55     91.67%     91.67% # Number of instructions fetched each cycle (Total)
system.cpu.fetch.rateDist::1                        0      0.00%     91.67% # Number of instructions fetched each cycle (Total)
system.cpu.fetch.rateDist::2                        1      1.67%     93.33% # Number of instructions fetched each cycle (Total)
system.cpu.fetch.rateDist::3                        0      0.00%     93.33% # Number of instructions fetched each cycle (Total)
system.cpu.fetch.rateDist::4                        0      0.00%     93.33% # Number of instructions fetched each cycle (Total)
system.cpu.fetch.rateDist::5                        0      0.00%     93.33% # Number of instructions fetched each cycle (Total)
system.cpu.fetch.rateDist::6                        1      1.67%     95.00% # Number of instructions fetched each cycle (Total)
system.cpu.fetch.rateDist::7                        0      0.00%     95.00% # Number of instructions fetched each cycle (Total)
system.cpu.fetch.rateDist::8                        3      5.00%    100.00% # Number of instructions fetched each cycle (Total)
system.cpu.fetch.rateDist::overflows                0      0.00%    100.00% # Number of instructions fetched each cycle (Total)
system.cpu.fetch.rateDist::min_value                0                       # Number of instructions fetched each cycle (Total)
system.cpu.fetch.rateDist::max_value                8                       # Number of instructions fetched each cycle (Total)
system.cpu.fetch.rateDist::total                   60                       # Number of instructions fetched each cycle (Total)
system.cpu.fp_regfile_reads                        56                       # number of floating regfile reads
system.cpu.icache.ReadReq_accesses::.cpu.inst            5                       # number of ReadReq accesses(hits+misses)
system.cpu.icache.ReadReq_accesses::.switch_cpus.inst     29277670                       # number of ReadReq accesses(hits+misses)
system.cpu.icache.ReadReq_accesses::.switch_cpus_1.inst      2825628                       # number of ReadReq accesses(hits+misses)
system.cpu.icache.ReadReq_accesses::total     32103303                       # number of ReadReq accesses(hits+misses)
system.cpu.icache.ReadReq_avg_miss_latency::.cpu.inst        86800                       # average ReadReq miss latency
system.cpu.icache.ReadReq_avg_miss_latency::.switch_cpus.inst 82303.473492                       # average ReadReq miss latency
system.cpu.icache.ReadReq_avg_miss_latency::.switch_cpus_1.inst 86370.721483                       # average ReadReq miss latency
system.cpu.icache.ReadReq_avg_miss_latency::total 83628.967334                       # average ReadReq miss latency
system.cpu.icache.ReadReq_avg_mshr_miss_latency::.cpu.inst        79500                       # average ReadReq mshr miss latency
system.cpu.icache.ReadReq_avg_mshr_miss_latency::.switch_cpus.inst 80303.473492                       # average ReadReq mshr miss latency
system.cpu.icache.ReadReq_avg_mshr_miss_latency::.switch_cpus_1.inst 86490.065121                       # average ReadReq mshr miss latency
system.cpu.icache.ReadReq_avg_mshr_miss_latency::total 82111.684635                       # average ReadReq mshr miss latency
system.cpu.icache.ReadReq_hits::.switch_cpus.inst     29275482                       # number of ReadReq hits
system.cpu.icache.ReadReq_hits::.switch_cpus_1.inst      2824576                       # number of ReadReq hits
system.cpu.icache.ReadReq_hits::total        32100058                       # number of ReadReq hits
system.cpu.icache.ReadReq_miss_latency::.cpu.inst       434000                       # number of ReadReq miss cycles
system.cpu.icache.ReadReq_miss_latency::.switch_cpus.inst    180080000                       # number of ReadReq miss cycles
system.cpu.icache.ReadReq_miss_latency::.switch_cpus_1.inst     90861999                       # number of ReadReq miss cycles
system.cpu.icache.ReadReq_miss_latency::total    271375999                       # number of ReadReq miss cycles
system.cpu.icache.ReadReq_miss_rate::.cpu.inst            1                       # miss rate for ReadReq accesses
system.cpu.icache.ReadReq_miss_rate::.switch_cpus.inst     0.000075                       # miss rate for ReadReq accesses
system.cpu.icache.ReadReq_miss_rate::.switch_cpus_1.inst     0.000372                       # miss rate for ReadReq accesses
system.cpu.icache.ReadReq_miss_rate::total     0.000101                       # miss rate for ReadReq accesses
system.cpu.icache.ReadReq_misses::.cpu.inst            5                       # number of ReadReq misses
system.cpu.icache.ReadReq_misses::.switch_cpus.inst         2188                       # number of ReadReq misses
system.cpu.icache.ReadReq_misses::.switch_cpus_1.inst         1052                       # number of ReadReq misses
system.cpu.icache.ReadReq_misses::total          3245                       # number of ReadReq misses
system.cpu.icache.ReadReq_mshr_hits::.cpu.inst            1                       # number of ReadReq MSHR hits
system.cpu.icache.ReadReq_mshr_hits::.switch_cpus_1.inst          146                       # number of ReadReq MSHR hits
system.cpu.icache.ReadReq_mshr_hits::total          147                       # number of ReadReq MSHR hits
system.cpu.icache.ReadReq_mshr_miss_latency::.cpu.inst       318000                       # number of ReadReq MSHR miss cycles
system.cpu.icache.ReadReq_mshr_miss_latency::.switch_cpus.inst    175704000                       # number of ReadReq MSHR miss cycles
system.cpu.icache.ReadReq_mshr_miss_latency::.switch_cpus_1.inst     78359999                       # number of ReadReq MSHR miss cycles
system.cpu.icache.ReadReq_mshr_miss_latency::total    254381999                       # number of ReadReq MSHR miss cycles
system.cpu.icache.ReadReq_mshr_miss_rate::.cpu.inst     0.800000                       # mshr miss rate for ReadReq accesses
system.cpu.icache.ReadReq_mshr_miss_rate::.switch_cpus.inst     0.000075                       # mshr miss rate for ReadReq accesses
system.cpu.icache.ReadReq_mshr_miss_rate::.switch_cpus_1.inst     0.000321                       # mshr miss rate for ReadReq accesses
system.cpu.icache.ReadReq_mshr_miss_rate::total     0.000097                       # mshr miss rate for ReadReq accesses
system.cpu.icache.ReadReq_mshr_misses::.cpu.inst            4                       # number of ReadReq MSHR misses
system.cpu.icache.ReadReq_mshr_misses::.switch_cpus.inst         2188                       # number of ReadReq MSHR misses
system.cpu.icache.ReadReq_mshr_misses::.switch_cpus_1.inst          906                       # number of ReadReq MSHR misses
system.cpu.icache.ReadReq_mshr_misses::total         3098                       # number of ReadReq MSHR misses
system.cpu.icache.avg_blocked_cycles::no_mshrs    24.727273                       # average number of cycles each access was blocked
system.cpu.icache.avg_blocked_cycles::no_targets          nan                       # average number of cycles each access was blocked
system.cpu.icache.blocked::no_mshrs                11                       # number of cycles access was blocked
system.cpu.icache.blocked::no_targets               0                       # number of cycles access was blocked
system.cpu.icache.blocked_cycles::no_mshrs          272                       # number of cycles access was blocked
system.cpu.icache.blocked_cycles::no_targets            0                       # number of cycles access was blocked
system.cpu.icache.demand_accesses::.cpu.inst            5                       # number of demand (read+write) accesses
system.cpu.icache.demand_accesses::.switch_cpus.inst     29277670                       # number of demand (read+write) accesses
system.cpu.icache.demand_accesses::.switch_cpus_1.inst      2825628                       # number of demand (read+write) accesses
system.cpu.icache.demand_accesses::total     32103303                       # number of demand (read+write) accesses
system.cpu.icache.demand_avg_miss_latency::.cpu.inst        86800                       # average overall miss latency
system.cpu.icache.demand_avg_miss_latency::.switch_cpus.inst 82303.473492                       # average overall miss latency
system.cpu.icache.demand_avg_miss_latency::.switch_cpus_1.inst 86370.721483                       # average overall miss latency
system.cpu.icache.demand_avg_miss_latency::total 83628.967334                       # average overall miss latency
system.cpu.icache.demand_avg_mshr_miss_latency::.cpu.inst        79500                       # average overall mshr miss latency
system.cpu.icache.demand_avg_mshr_miss_latency::.switch_cpus.inst 80303.473492                       # average overall mshr miss latency
system.cpu.icache.demand_avg_mshr_miss_latency::.switch_cpus_1.inst 86490.065121                       # average overall mshr miss latency
system.cpu.icache.demand_avg_mshr_miss_latency::total 82111.684635                       # average overall mshr miss latency
system.cpu.icache.demand_hits::.switch_cpus.inst     29275482                       # number of demand (read+write) hits
system.cpu.icache.demand_hits::.switch_cpus_1.inst      2824576                       # number of demand (read+write) hits
system.cpu.icache.demand_hits::total         32100058                       # number of demand (read+write) hits
system.cpu.icache.demand_miss_latency::.cpu.inst       434000                       # number of demand (read+write) miss cycles
system.cpu.icache.demand_miss_latency::.switch_cpus.inst    180080000                       # number of demand (read+write) miss cycles
system.cpu.icache.demand_miss_latency::.switch_cpus_1.inst     90861999                       # number of demand (read+write) miss cycles
system.cpu.icache.demand_miss_latency::total    271375999                       # number of demand (read+write) miss cycles
system.cpu.icache.demand_miss_rate::.cpu.inst            1                       # miss rate for demand accesses
system.cpu.icache.demand_miss_rate::.switch_cpus.inst     0.000075                       # miss rate for demand accesses
system.cpu.icache.demand_miss_rate::.switch_cpus_1.inst     0.000372                       # miss rate for demand accesses
system.cpu.icache.demand_miss_rate::total     0.000101                       # miss rate for demand accesses
system.cpu.icache.demand_misses::.cpu.inst            5                       # number of demand (read+write) misses
system.cpu.icache.demand_misses::.switch_cpus.inst         2188                       # number of demand (read+write) misses
system.cpu.icache.demand_misses::.switch_cpus_1.inst         1052                       # number of demand (read+write) misses
system.cpu.icache.demand_misses::total           3245                       # number of demand (read+write) misses
system.cpu.icache.demand_mshr_hits::.cpu.inst            1                       # number of demand (read+write) MSHR hits
system.cpu.icache.demand_mshr_hits::.switch_cpus_1.inst          146                       # number of demand (read+write) MSHR hits
system.cpu.icache.demand_mshr_hits::total          147                       # number of demand (read+write) MSHR hits
system.cpu.icache.demand_mshr_miss_latency::.cpu.inst       318000                       # number of demand (read+write) MSHR miss cycles
system.cpu.icache.demand_mshr_miss_latency::.switch_cpus.inst    175704000                       # number of demand (read+write) MSHR miss cycles
system.cpu.icache.demand_mshr_miss_latency::.switch_cpus_1.inst     78359999                       # number of demand (read+write) MSHR miss cycles
system.cpu.icache.demand_mshr_miss_latency::total    254381999                       # number of demand (read+write) MSHR miss cycles
system.cpu.icache.demand_mshr_miss_rate::.cpu.inst     0.800000                       # mshr miss rate for demand accesses
system.cpu.icache.demand_mshr_miss_rate::.switch_cpus.inst     0.000075                       # mshr miss rate for demand accesses
system.cpu.icache.demand_mshr_miss_rate::.switch_cpus_1.inst     0.000321                       # mshr miss rate for demand accesses
system.cpu.icache.demand_mshr_miss_rate::total     0.000097                       # mshr miss rate for demand accesses
system.cpu.icache.demand_mshr_misses::.cpu.inst            4                       # number of demand (read+write) MSHR misses
system.cpu.icache.demand_mshr_misses::.switch_cpus.inst         2188                       # number of demand (read+write) MSHR misses
system.cpu.icache.demand_mshr_misses::.switch_cpus_1.inst          906                       # number of demand (read+write) MSHR misses
system.cpu.icache.demand_mshr_misses::total         3098                       # number of demand (read+write) MSHR misses
system.cpu.icache.overall_accesses::.cpu.inst            5                       # number of overall (read+write) accesses
system.cpu.icache.overall_accesses::.switch_cpus.inst     29277670                       # number of overall (read+write) accesses
system.cpu.icache.overall_accesses::.switch_cpus_1.inst      2825628                       # number of overall (read+write) accesses
system.cpu.icache.overall_accesses::total     32103303                       # number of overall (read+write) accesses
system.cpu.icache.overall_avg_miss_latency::.cpu.inst        86800                       # average overall miss latency
system.cpu.icache.overall_avg_miss_latency::.switch_cpus.inst 82303.473492                       # average overall miss latency
system.cpu.icache.overall_avg_miss_latency::.switch_cpus_1.inst 86370.721483                       # average overall miss latency
system.cpu.icache.overall_avg_miss_latency::total 83628.967334                       # average overall miss latency
system.cpu.icache.overall_avg_mshr_miss_latency::.cpu.inst        79500                       # average overall mshr miss latency
system.cpu.icache.overall_avg_mshr_miss_latency::.switch_cpus.inst 80303.473492                       # average overall mshr miss latency
system.cpu.icache.overall_avg_mshr_miss_latency::.switch_cpus_1.inst 86490.065121                       # average overall mshr miss latency
system.cpu.icache.overall_avg_mshr_miss_latency::total 82111.684635                       # average overall mshr miss latency
system.cpu.icache.overall_hits::.switch_cpus.inst     29275482                       # number of overall hits
system.cpu.icache.overall_hits::.switch_cpus_1.inst      2824576                       # number of overall hits
system.cpu.icache.overall_hits::total        32100058                       # number of overall hits
system.cpu.icache.overall_miss_latency::.cpu.inst       434000                       # number of overall miss cycles
system.cpu.icache.overall_miss_latency::.switch_cpus.inst    180080000                       # number of overall miss cycles
system.cpu.icache.overall_miss_latency::.switch_cpus_1.inst     90861999                       # number of overall miss cycles
system.cpu.icache.overall_miss_latency::total    271375999                       # number of overall miss cycles
system.cpu.icache.overall_miss_rate::.cpu.inst            1                       # miss rate for overall accesses
system.cpu.icache.overall_miss_rate::.switch_cpus.inst     0.000075                       # miss rate for overall accesses
system.cpu.icache.overall_miss_rate::.switch_cpus_1.inst     0.000372                       # miss rate for overall accesses
system.cpu.icache.overall_miss_rate::total     0.000101                       # miss rate for overall accesses
system.cpu.icache.overall_misses::.cpu.inst            5                       # number of overall misses
system.cpu.icache.overall_misses::.switch_cpus.inst         2188                       # number of overall misses
system.cpu.icache.overall_misses::.switch_cpus_1.inst         1052                       # number of overall misses
system.cpu.icache.overall_misses::total          3245                       # number of overall misses
system.cpu.icache.overall_mshr_hits::.cpu.inst            1                       # number of overall MSHR hits
system.cpu.icache.overall_mshr_hits::.switch_cpus_1.inst          146                       # number of overall MSHR hits
system.cpu.icache.overall_mshr_hits::total          147                       # number of overall MSHR hits
system.cpu.icache.overall_mshr_miss_latency::.cpu.inst       318000                       # number of overall MSHR miss cycles
system.cpu.icache.overall_mshr_miss_latency::.switch_cpus.inst    175704000                       # number of overall MSHR miss cycles
system.cpu.icache.overall_mshr_miss_latency::.switch_cpus_1.inst     78359999                       # number of overall MSHR miss cycles
system.cpu.icache.overall_mshr_miss_latency::total    254381999                       # number of overall MSHR miss cycles
system.cpu.icache.overall_mshr_miss_rate::.cpu.inst     0.800000                       # mshr miss rate for overall accesses
system.cpu.icache.overall_mshr_miss_rate::.switch_cpus.inst     0.000075                       # mshr miss rate for overall accesses
system.cpu.icache.overall_mshr_miss_rate::.switch_cpus_1.inst     0.000321                       # mshr miss rate for overall accesses
system.cpu.icache.overall_mshr_miss_rate::total     0.000097                       # mshr miss rate for overall accesses
system.cpu.icache.overall_mshr_misses::.cpu.inst            4                       # number of overall MSHR misses
system.cpu.icache.overall_mshr_misses::.switch_cpus.inst         2188                       # number of overall MSHR misses
system.cpu.icache.overall_mshr_misses::.switch_cpus_1.inst          906                       # number of overall MSHR misses
system.cpu.icache.overall_mshr_misses::total         3098                       # number of overall MSHR misses
system.cpu.icache.pwrStateResidencyTicks::UNDEFINED  81973785000                       # Cumulative time (in ticks) in various power states
system.cpu.icache.replacements                   2841                       # number of replacements
system.cpu.icache.tags.age_task_id_blocks_1024::0           83                       # Occupied blocks per task id
system.cpu.icache.tags.age_task_id_blocks_1024::1          161                       # Occupied blocks per task id
system.cpu.icache.tags.age_task_id_blocks_1024::2            2                       # Occupied blocks per task id
system.cpu.icache.tags.age_task_id_blocks_1024::3            1                       # Occupied blocks per task id
system.cpu.icache.tags.age_task_id_blocks_1024::4            9                       # Occupied blocks per task id
system.cpu.icache.tags.avg_refs          10365.887956                       # Average number of references to valid blocks.
system.cpu.icache.tags.data_accesses         64209703                       # Number of data accesses
system.cpu.icache.tags.occ_blocks::.cpu.inst     0.003724                       # Average occupied blocks per requestor
system.cpu.icache.tags.occ_blocks::.switch_cpus.inst   250.070724                       # Average occupied blocks per requestor
system.cpu.icache.tags.occ_blocks::.switch_cpus_1.inst     5.791846                       # Average occupied blocks per requestor
system.cpu.icache.tags.occ_percent::.cpu.inst     0.000015                       # Average percentage of cache occupancy
system.cpu.icache.tags.occ_percent::.switch_cpus.inst     0.976839                       # Average percentage of cache occupancy
system.cpu.icache.tags.occ_percent::.switch_cpus_1.inst     0.022624                       # Average percentage of cache occupancy
system.cpu.icache.tags.occ_percent::total     0.999478                       # Average percentage of cache occupancy
system.cpu.icache.tags.occ_task_id_blocks::1024          256                       # Occupied blocks per task id
system.cpu.icache.tags.occ_task_id_percent::1024            1                       # Percentage of cache occupancy per task id
system.cpu.icache.tags.pwrStateResidencyTicks::UNDEFINED  81973785000                       # Cumulative time (in ticks) in various power states
system.cpu.icache.tags.sampled_refs              3097                       # Sample count of references to valid blocks.
system.cpu.icache.tags.tag_accesses          64209703                       # Number of tag accesses
system.cpu.icache.tags.tagsinuse           255.866294                       # Cycle average of tags in use
system.cpu.icache.tags.total_refs            32103155                       # Total number of references to valid blocks.
system.cpu.icache.tags.warmup_cycle            108000                       # Cycle when the warmup percentage was hit.
system.cpu.icache.writebacks::.writebacks         2841                       # number of writebacks
system.cpu.icache.writebacks::total              2841                       # number of writebacks
system.cpu.idleCycles                             238                       # Total number of cycles that the CPU has spent unscheduled due to idling
system.cpu.iew.branchMispredicts                    1                       # Number of branch mispredicts detected at execute
system.cpu.iew.exec_branches                        1                       # Number of branches executed
system.cpu.iew.exec_nop                             0                       # number of nop insts executed
system.cpu.iew.exec_rate                     0.070470                       # Inst execution rate
system.cpu.iew.exec_refs                            7                       # number of memory reference insts executed
system.cpu.iew.exec_stores                          5                       # Number of stores executed
system.cpu.iew.exec_swp                             0                       # number of swp insts executed
system.cpu.iew.iewBlockCycles                       2                       # Number of cycles IEW is blocking
system.cpu.iew.iewDispLoadInsts                     2                       # Number of dispatched load instructions
system.cpu.iew.iewDispNonSpecInsts                  0                       # Number of dispatched non-speculative instructions
system.cpu.iew.iewDispSquashedInsts                 0                       # Number of squashed instructions skipped by dispatch
system.cpu.iew.iewDispStoreInsts                    8                       # Number of dispatched store instructions
system.cpu.iew.iewDispatchedInsts                  32                       # Number of instructions dispatched to IQ
system.cpu.iew.iewExecLoadInsts                     2                       # Number of load instructions executed
system.cpu.iew.iewExecSquashedInsts                 3                       # Number of squashed instructions skipped in execute
system.cpu.iew.iewExecutedInsts                    21                       # Number of executed instructions
system.cpu.iew.iewIQFullEvents                      0                       # Number of times the IQ has become full, causing a stall
system.cpu.iew.iewIdleCycles                        0                       # Number of cycles IEW is idle
system.cpu.iew.iewLSQFullEvents                     0                       # Number of times the LSQ has become full, causing a stall
system.cpu.iew.iewSquashCycles                      3                       # Number of cycles IEW is squashing
system.cpu.iew.iewUnblockCycles                     0                       # Number of cycles IEW is unblocking
system.cpu.iew.lsq.thread0.blockedLoads             0                       # Number of blocked loads due to partial load-store forwarding
system.cpu.iew.lsq.thread0.cacheBlocked             0                       # Number of times an access to memory failed due to the cache being blocked
system.cpu.iew.lsq.thread0.forwLoads                1                       # Number of loads that had data forwarded from stores
system.cpu.iew.lsq.thread0.ignoredResponses            0                       # Number of memory responses ignored because the instruction is squashed
system.cpu.iew.lsq.thread0.invAddrLoads             0                       # Number of loads ignored due to an invalid address
system.cpu.iew.lsq.thread0.invAddrSwpfs             0                       # Number of software prefetches ignored due to an invalid address
system.cpu.iew.lsq.thread0.memOrderViolation            0                       # Number of memory ordering violations
system.cpu.iew.lsq.thread0.rescheduledLoads            0                       # Number of loads that were rescheduled
system.cpu.iew.lsq.thread0.squashedLoads            2                       # Number of loads squashed
system.cpu.iew.lsq.thread0.squashedStores            6                       # Number of stores squashed
system.cpu.iew.memOrderViolationEvents              0                       # Number of memory order violations
system.cpu.iew.predictedNotTakenIncorrect            1                       # Number of branches that were predicted not taken incorrectly
system.cpu.iew.predictedTakenIncorrect              0                       # Number of branches that were predicted taken incorrectly
system.cpu.iew.wb_consumers                        18                       # num instructions consuming a value
system.cpu.iew.wb_count                            20                       # cumulative count of insts written-back
system.cpu.iew.wb_fanout                     0.555556                       # average fanout of values written-back
system.cpu.iew.wb_producers                        10                       # num instructions producing a value
system.cpu.iew.wb_rate                       0.067114                       # insts written-back per cycle
system.cpu.iew.wb_sent                             20                       # cumulative count of insts sent to commit
system.cpu.int_regfile_reads                       77                       # number of integer regfile reads
system.cpu.int_regfile_writes                      14                       # number of integer regfile writes
system.cpu.interrupts.pwrStateResidencyTicks::UNDEFINED  81973785000                       # Cumulative time (in ticks) in various power states
system.cpu.ipc                               0.010067                       # IPC: Instructions Per Cycle
system.cpu.ipc_total                         0.010067                       # IPC: Total IPC of All Threads
system.cpu.iq.FU_type_0::No_OpClass                 0      0.00%      0.00% # Type of FU issued
system.cpu.iq.FU_type_0::IntAlu                    16     66.67%     66.67% # Type of FU issued
system.cpu.iq.FU_type_0::IntMult                    0      0.00%     66.67% # Type of FU issued
system.cpu.iq.FU_type_0::IntDiv                     0      0.00%     66.67% # Type of FU issued
system.cpu.iq.FU_type_0::FloatAdd                   0      0.00%     66.67% # Type of FU issued
system.cpu.iq.FU_type_0::FloatCmp                   0      0.00%     66.67% # Type of FU issued
system.cpu.iq.FU_type_0::FloatCvt                   0      0.00%     66.67% # Type of FU issued
system.cpu.iq.FU_type_0::FloatMult                  0      0.00%     66.67% # Type of FU issued
system.cpu.iq.FU_type_0::FloatMultAcc               0      0.00%     66.67% # Type of FU issued
system.cpu.iq.FU_type_0::FloatDiv                   0      0.00%     66.67% # Type of FU issued
system.cpu.iq.FU_type_0::FloatMisc                  0      0.00%     66.67% # Type of FU issued
system.cpu.iq.FU_type_0::FloatSqrt                  0      0.00%     66.67% # Type of FU issued
system.cpu.iq.FU_type_0::SimdAdd                    0      0.00%     66.67% # Type of FU issued
system.cpu.iq.FU_type_0::SimdAddAcc                 0      0.00%     66.67% # Type of FU issued
system.cpu.iq.FU_type_0::SimdAlu                    0      0.00%     66.67% # Type of FU issued
system.cpu.iq.FU_type_0::SimdCmp                    0      0.00%     66.67% # Type of FU issued
system.cpu.iq.FU_type_0::SimdCvt                    0      0.00%     66.67% # Type of FU issued
system.cpu.iq.FU_type_0::SimdMisc                   0      0.00%     66.67% # Type of FU issued
system.cpu.iq.FU_type_0::SimdMult                   0      0.00%     66.67% # Type of FU issued
system.cpu.iq.FU_type_0::SimdMultAcc                0      0.00%     66.67% # Type of FU issued
system.cpu.iq.FU_type_0::SimdShift                  0      0.00%     66.67% # Type of FU issued
system.cpu.iq.FU_type_0::SimdShiftAcc               0      0.00%     66.67% # Type of FU issued
system.cpu.iq.FU_type_0::SimdDiv                    0      0.00%     66.67% # Type of FU issued
system.cpu.iq.FU_type_0::SimdSqrt                   0      0.00%     66.67% # Type of FU issued
system.cpu.iq.FU_type_0::SimdFloatAdd               0      0.00%     66.67% # Type of FU issued
system.cpu.iq.FU_type_0::SimdFloatAlu               0      0.00%     66.67% # Type of FU issued
system.cpu.iq.FU_type_0::SimdFloatCmp               0      0.00%     66.67% # Type of FU issued
system.cpu.iq.FU_type_0::SimdFloatCvt               0      0.00%     66.67% # Type of FU issued
system.cpu.iq.FU_type_0::SimdFloatDiv               0      0.00%     66.67% # Type of FU issued
system.cpu.iq.FU_type_0::SimdFloatMisc              0      0.00%     66.67% # Type of FU issued
system.cpu.iq.FU_type_0::SimdFloatMult              0      0.00%     66.67% # Type of FU issued
system.cpu.iq.FU_type_0::SimdFloatMultAcc            0      0.00%     66.67% # Type of FU issued
system.cpu.iq.FU_type_0::SimdFloatSqrt              0      0.00%     66.67% # Type of FU issued
system.cpu.iq.FU_type_0::SimdReduceAdd              0      0.00%     66.67% # Type of FU issued
system.cpu.iq.FU_type_0::SimdReduceAlu              0      0.00%     66.67% # Type of FU issued
system.cpu.iq.FU_type_0::SimdReduceCmp              0      0.00%     66.67% # Type of FU issued
system.cpu.iq.FU_type_0::SimdFloatReduceAdd            0      0.00%     66.67% # Type of FU issued
system.cpu.iq.FU_type_0::SimdFloatReduceCmp            0      0.00%     66.67% # Type of FU issued
system.cpu.iq.FU_type_0::SimdAes                    0      0.00%     66.67% # Type of FU issued
system.cpu.iq.FU_type_0::SimdAesMix                 0      0.00%     66.67% # Type of FU issued
system.cpu.iq.FU_type_0::SimdSha1Hash               0      0.00%     66.67% # Type of FU issued
system.cpu.iq.FU_type_0::SimdSha1Hash2              0      0.00%     66.67% # Type of FU issued
system.cpu.iq.FU_type_0::SimdSha256Hash             0      0.00%     66.67% # Type of FU issued
system.cpu.iq.FU_type_0::SimdSha256Hash2            0      0.00%     66.67% # Type of FU issued
system.cpu.iq.FU_type_0::SimdShaSigma2              0      0.00%     66.67% # Type of FU issued
system.cpu.iq.FU_type_0::SimdShaSigma3              0      0.00%     66.67% # Type of FU issued
system.cpu.iq.FU_type_0::SimdPredAlu                0      0.00%     66.67% # Type of FU issued
system.cpu.iq.FU_type_0::MemRead                    2      8.33%     75.00% # Type of FU issued
system.cpu.iq.FU_type_0::MemWrite                   6     25.00%    100.00% # Type of FU issued
system.cpu.iq.FU_type_0::FloatMemRead               0      0.00%    100.00% # Type of FU issued
system.cpu.iq.FU_type_0::FloatMemWrite              0      0.00%    100.00% # Type of FU issued
system.cpu.iq.FU_type_0::IprAccess                  0      0.00%    100.00% # Type of FU issued
system.cpu.iq.FU_type_0::InstPrefetch               0      0.00%    100.00% # Type of FU issued
system.cpu.iq.FU_type_0::total                     24                       # Type of FU issued
system.cpu.iq.fp_alu_accesses                       0                       # Number of floating point alu accesses
system.cpu.iq.fp_inst_queue_reads                   0                       # Number of floating instruction queue reads
system.cpu.iq.fp_inst_queue_wakeup_accesses            0                       # Number of floating instruction queue wakeup accesses
system.cpu.iq.fp_inst_queue_writes                  0                       # Number of floating instruction queue writes
system.cpu.iq.fu_busy_cnt                           0                       # FU busy when requested
system.cpu.iq.fu_busy_rate                          0                       # FU busy rate (busy events/executed inst)
system.cpu.iq.fu_full::No_OpClass                   0                       # attempts to use FU when none available
system.cpu.iq.fu_full::IntAlu                       0                       # attempts to use FU when none available
system.cpu.iq.fu_full::IntMult                      0                       # attempts to use FU when none available
system.cpu.iq.fu_full::IntDiv                       0                       # attempts to use FU when none available
system.cpu.iq.fu_full::FloatAdd                     0                       # attempts to use FU when none available
system.cpu.iq.fu_full::FloatCmp                     0                       # attempts to use FU when none available
system.cpu.iq.fu_full::FloatCvt                     0                       # attempts to use FU when none available
system.cpu.iq.fu_full::FloatMult                    0                       # attempts to use FU when none available
system.cpu.iq.fu_full::FloatMultAcc                 0                       # attempts to use FU when none available
system.cpu.iq.fu_full::FloatDiv                     0                       # attempts to use FU when none available
system.cpu.iq.fu_full::FloatMisc                    0                       # attempts to use FU when none available
system.cpu.iq.fu_full::FloatSqrt                    0                       # attempts to use FU when none available
system.cpu.iq.fu_full::SimdAdd                      0                       # attempts to use FU when none available
system.cpu.iq.fu_full::SimdAddAcc                   0                       # attempts to use FU when none available
system.cpu.iq.fu_full::SimdAlu                      0                       # attempts to use FU when none available
system.cpu.iq.fu_full::SimdCmp                      0                       # attempts to use FU when none available
system.cpu.iq.fu_full::SimdCvt                      0                       # attempts to use FU when none available
system.cpu.iq.fu_full::SimdMisc                     0                       # attempts to use FU when none available
system.cpu.iq.fu_full::SimdMult                     0                       # attempts to use FU when none available
system.cpu.iq.fu_full::SimdMultAcc                  0                       # attempts to use FU when none available
system.cpu.iq.fu_full::SimdShift                    0                       # attempts to use FU when none available
system.cpu.iq.fu_full::SimdShiftAcc                 0                       # attempts to use FU when none available
system.cpu.iq.fu_full::SimdDiv                      0                       # attempts to use FU when none available
system.cpu.iq.fu_full::SimdSqrt                     0                       # attempts to use FU when none available
system.cpu.iq.fu_full::SimdFloatAdd                 0                       # attempts to use FU when none available
system.cpu.iq.fu_full::SimdFloatAlu                 0                       # attempts to use FU when none available
system.cpu.iq.fu_full::SimdFloatCmp                 0                       # attempts to use FU when none available
system.cpu.iq.fu_full::SimdFloatCvt                 0                       # attempts to use FU when none available
system.cpu.iq.fu_full::SimdFloatDiv                 0                       # attempts to use FU when none available
system.cpu.iq.fu_full::SimdFloatMisc                0                       # attempts to use FU when none available
system.cpu.iq.fu_full::SimdFloatMult                0                       # attempts to use FU when none available
system.cpu.iq.fu_full::SimdFloatMultAcc             0                       # attempts to use FU when none available
system.cpu.iq.fu_full::SimdFloatSqrt                0                       # attempts to use FU when none available
system.cpu.iq.fu_full::SimdReduceAdd                0                       # attempts to use FU when none available
system.cpu.iq.fu_full::SimdReduceAlu                0                       # attempts to use FU when none available
system.cpu.iq.fu_full::SimdReduceCmp                0                       # attempts to use FU when none available
system.cpu.iq.fu_full::SimdFloatReduceAdd            0                       # attempts to use FU when none available
system.cpu.iq.fu_full::SimdFloatReduceCmp            0                       # attempts to use FU when none available
system.cpu.iq.fu_full::SimdAes                      0                       # attempts to use FU when none available
system.cpu.iq.fu_full::SimdAesMix                   0                       # attempts to use FU when none available
system.cpu.iq.fu_full::SimdSha1Hash                 0                       # attempts to use FU when none available
[...]
system.switch_cpus_1.iq.fu_full::IntDiv             0      0.00%     99.78% # attempts to use FU when none available
system.switch_cpus_1.iq.fu_full::FloatAdd            0      0.00%     99.78% # attempts to use FU when none available
system.switch_cpus_1.iq.fu_full::FloatCmp            0      0.00%     99.78% # attempts to use FU when none available
system.switch_cpus_1.iq.fu_full::FloatCvt            0      0.00%     99.78% # attempts to use FU when none available
system.switch_cpus_1.iq.fu_full::FloatMult            0      0.00%     99.78% # attempts to use FU when none available
system.switch_cpus_1.iq.fu_full::FloatMultAcc            0      0.00%     99.78% # attempts to use FU when none available
system.switch_cpus_1.iq.fu_full::FloatDiv            0      0.00%     99.78% # attempts to use FU when none available
system.switch_cpus_1.iq.fu_full::FloatMisc            0      0.00%     99.78% # attempts to use FU when none available
system.switch_cpus_1.iq.fu_full::FloatSqrt            0      0.00%     99.78% # attempts to use FU when none available
system.switch_cpus_1.iq.fu_full::SimdAdd            0      0.00%     99.78% # attempts to use FU when none available
system.switch_cpus_1.iq.fu_full::SimdAddAcc            0      0.00%     99.78% # attempts to use FU when none available
system.switch_cpus_1.iq.fu_full::SimdAlu            0      0.00%     99.78% # attempts to use FU when none available
system.switch_cpus_1.iq.fu_full::SimdCmp            0      0.00%     99.78% # attempts to use FU when none available
system.switch_cpus_1.iq.fu_full::SimdCvt            0      0.00%     99.78% # attempts to use FU when none available
system.switch_cpus_1.iq.fu_full::SimdMisc            5      0.00%     99.78% # attempts to use FU when none available
system.switch_cpus_1.iq.fu_full::SimdMult           10      0.01%     99.79% # attempts to use FU when none available
system.switch_cpus_1.iq.fu_full::SimdMultAcc            0      0.00%     99.79% # attempts to use FU when none available
system.switch_cpus_1.iq.fu_full::SimdShift            0      0.00%     99.79% # attempts to use FU when none available
system.switch_cpus_1.iq.fu_full::SimdShiftAcc            0      0.00%     99.79% # attempts to use FU when none available
system.switch_cpus_1.iq.fu_full::SimdDiv            0      0.00%     99.79% # attempts to use FU when none available
system.switch_cpus_1.iq.fu_full::SimdSqrt            0      0.00%     99.79% # attempts to use FU when none available
system.switch_cpus_1.iq.fu_full::SimdFloatAdd            0      0.00%     99.79% # attempts to use FU when none available
system.switch_cpus_1.iq.fu_full::SimdFloatAlu            0      0.00%     99.79% # attempts to use FU when none available
system.switch_cpus_1.iq.fu_full::SimdFloatCmp            0      0.00%     99.79% # attempts to use FU when none available
system.switch_cpus_1.iq.fu_full::SimdFloatCvt            0      0.00%     99.79% # attempts to use FU when none available
system.switch_cpus_1.iq.fu_full::SimdFloatDiv            0      0.00%     99.79% # attempts to use FU when none available
system.switch_cpus_1.iq.fu_full::SimdFloatMisc            0      0.00%     99.79% # attempts to use FU when none available
system.switch_cpus_1.iq.fu_full::SimdFloatMult            0      0.00%     99.79% # attempts to use FU when none available
system.switch_cpus_1.iq.fu_full::SimdFloatMultAcc            0      0.00%     99.79% # attempts to use FU when none available
system.switch_cpus_1.iq.fu_full::SimdFloatSqrt            0      0.00%     99.79% # attempts to use FU when none available
system.switch_cpus_1.iq.fu_full::SimdReduceAdd            0      0.00%     99.79% # attempts to use FU when none available
system.switch_cpus_1.iq.fu_full::SimdReduceAlu            0      0.00%     99.79% # attempts to use FU when none available
system.switch_cpus_1.iq.fu_full::SimdReduceCmp            0      0.00%     99.79% # attempts to use FU when none available
system.switch_cpus_1.iq.fu_full::SimdFloatReduceAdd            0      0.00%     99.79% # attempts to use FU when none available
system.switch_cpus_1.iq.fu_full::SimdFloatReduceCmp            0      0.00%     99.79% # attempts to use FU when none available
system.switch_cpus_1.iq.fu_full::SimdAes            0      0.00%     99.79% # attempts to use FU when none available
system.switch_cpus_1.iq.fu_full::SimdAesMix            0      0.00%     99.79% # attempts to use FU when none available
system.switch_cpus_1.iq.fu_full::SimdSha1Hash            0      0.00%     99.79% # attempts to use FU when none available
system.switch_cpus_1.iq.fu_full::SimdSha1Hash2            0      0.00%     99.79% # attempts to use FU when none available
system.switch_cpus_1.iq.fu_full::SimdSha256Hash            0      0.00%     99.79% # attempts to use FU when none available
system.switch_cpus_1.iq.fu_full::SimdSha256Hash2            0      0.00%     99.79% # attempts to use FU when none available
system.switch_cpus_1.iq.fu_full::SimdShaSigma2            0      0.00%     99.79% # attempts to use FU when none available
system.switch_cpus_1.iq.fu_full::SimdShaSigma3            0      0.00%     99.79% # attempts to use FU when none available
system.switch_cpus_1.iq.fu_full::SimdPredAlu            0      0.00%     99.79% # attempts to use FU when none available
system.switch_cpus_1.iq.fu_full::MemRead           96      0.08%     99.87% # attempts to use FU when none available
system.switch_cpus_1.iq.fu_full::MemWrite           59      0.05%     99.92% # attempts to use FU when none available
system.switch_cpus_1.iq.fu_full::FloatMemRead           52      0.04%     99.96% # attempts to use FU when none available
system.switch_cpus_1.iq.fu_full::FloatMemWrite           49      0.04%    100.00% # attempts to use FU when none available
system.switch_cpus_1.iq.fu_full::IprAccess            0      0.00%    100.00% # attempts to use FU when none available
system.switch_cpus_1.iq.fu_full::InstPrefetch            0      0.00%    100.00% # attempts to use FU when none available
system.switch_cpus_1.iq.int_alu_accesses     21324061                       # Number of integer alu accesses
system.switch_cpus_1.iq.int_inst_queue_reads     52511586                       # Number of integer instruction queue reads
system.switch_cpus_1.iq.int_inst_queue_wakeup_accesses     21194555                       # Number of integer instruction queue wakeup accesses
system.switch_cpus_1.iq.int_inst_queue_writes     21287382                       # Number of integer instruction queue writes
system.switch_cpus_1.iq.iqInstsAdded         39079594                       # Number of instructions added to the IQ (excludes non-spec)
system.switch_cpus_1.iq.iqInstsIssued        39051470                       # Number of instructions issued
system.switch_cpus_1.iq.iqNonSpecInstsAdded          538                       # Number of non-speculative instructions added to the IQ
system.switch_cpus_1.iq.iqSquashedInstsExamined        88509                       # Number of squashed instructions iterated over during squash; mainly for profiling
system.switch_cpus_1.iq.iqSquashedInstsIssued          448                       # Number of squashed instructions issued
system.switch_cpus_1.iq.iqSquashedNonSpecRemoved          479                       # Number of squashed non-spec instructions that were removed
system.switch_cpus_1.iq.iqSquashedOperandsExamined       106787                       # Number of squashed operands that are examined and possibly removed from graph
system.switch_cpus_1.iq.issued_per_cycle::samples      9983013                       # Number of insts issued each cycle
system.switch_cpus_1.iq.issued_per_cycle::mean     3.911792                       # Number of insts issued each cycle
system.switch_cpus_1.iq.issued_per_cycle::stdev     1.950182                       # Number of insts issued each cycle
system.switch_cpus_1.iq.issued_per_cycle::underflows            0      0.00%      0.00% # Number of insts issued each cycle
system.switch_cpus_1.iq.issued_per_cycle::0       104588      1.05%      1.05% # Number of insts issued each cycle
system.switch_cpus_1.iq.issued_per_cycle::1       716155      7.17%      8.22% # Number of insts issued each cycle
system.switch_cpus_1.iq.issued_per_cycle::2      2100924     21.04%     29.27% # Number of insts issued each cycle
system.switch_cpus_1.iq.issued_per_cycle::3      2088194     20.92%     50.18% # Number of insts issued each cycle
system.switch_cpus_1.iq.issued_per_cycle::4       970995      9.73%     59.91% # Number of insts issued each cycle
system.switch_cpus_1.iq.issued_per_cycle::5      1433414     14.36%     74.27% # Number of insts issued each cycle
system.switch_cpus_1.iq.issued_per_cycle::6      1512965     15.16%     89.42% # Number of insts issued each cycle
system.switch_cpus_1.iq.issued_per_cycle::7       706179      7.07%     96.50% # Number of insts issued each cycle
system.switch_cpus_1.iq.issued_per_cycle::8       349599      3.50%    100.00% # Number of insts issued each cycle
system.switch_cpus_1.iq.issued_per_cycle::overflows            0      0.00%    100.00% # Number of insts issued each cycle
system.switch_cpus_1.iq.issued_per_cycle::min_value            0                       # Number of insts issued each cycle
system.switch_cpus_1.iq.issued_per_cycle::max_value            8                       # Number of insts issued each cycle
system.switch_cpus_1.iq.issued_per_cycle::total      9983013                       # Number of insts issued each cycle
system.switch_cpus_1.iq.rate                 3.902580                       # Inst issue rate
system.switch_cpus_1.iq.vec_alu_accesses            0                       # Number of vector alu accesses
system.switch_cpus_1.iq.vec_inst_queue_reads            0                       # Number of vector instruction queue reads
system.switch_cpus_1.iq.vec_inst_queue_wakeup_accesses            0                       # Number of vector instruction queue wakeup accesses
system.switch_cpus_1.iq.vec_inst_queue_writes            0                       # Number of vector instruction queue writes
system.switch_cpus_1.itb.rdAccesses                 0                       # TLB accesses on read requests
system.switch_cpus_1.itb.rdMisses                   0                       # TLB misses on read requests
system.switch_cpus_1.itb.walker.pwrStateResidencyTicks::UNDEFINED  81973785000                       # Cumulative time (in ticks) in various power states
system.switch_cpus_1.itb.wrAccesses           2825709                       # TLB accesses on write requests
system.switch_cpus_1.itb.wrMisses                 151                       # TLB misses on write requests
system.switch_cpus_1.memDep0.conflictingLoads          441                       # Number of conflicting loads.
system.switch_cpus_1.memDep0.conflictingStores          327                       # Number of conflicting stores.
system.switch_cpus_1.memDep0.insertedLoads      4007409                       # Number of loads inserted to the mem dependence unit.
system.switch_cpus_1.memDep0.insertedStores       717993                       # Number of stores inserted to the mem dependence unit.
system.switch_cpus_1.misc_regfile_reads      12720714                       # number of misc regfile reads
system.switch_cpus_1.misc_regfile_writes           28                       # number of misc regfile writes
system.switch_cpus_1.numCycles               10006578                       # number of cpu cycles simulated
system.switch_cpus_1.numWorkItemsCompleted            0                       # number of work items this cpu completed
system.switch_cpus_1.numWorkItemsStarted            0                       # number of work items this cpu started
system.switch_cpus_1.pwrStateResidencyTicks::OFF  81973785000                       # Cumulative time (in ticks) in various power states
system.switch_cpus_1.rename.BlockCycles         38232                       # Number of cycles rename is blocking
system.switch_cpus_1.rename.CommittedMaps     44851316                       # Number of HB maps that are committed
system.switch_cpus_1.rename.IQFullEvents      2452283                       # Number of times rename has blocked due to IQ full
system.switch_cpus_1.rename.IdleCycles        2258272                       # Number of cycles rename is idle
system.switch_cpus_1.rename.LQFullEvents          195                       # Number of times rename has blocked due to LQ full
system.switch_cpus_1.rename.ROBFullEvents          233                       # Number of times rename has blocked due to ROB full
system.switch_cpus_1.rename.RenameLookups     85060637                       # Number of register rename lookups that rename has made
system.switch_cpus_1.rename.RenamedInsts     39101787                       # Number of instructions processed by rename
system.switch_cpus_1.rename.RenamedOperands     44968297                       # Number of destination operands rename has renamed
system.switch_cpus_1.rename.RunCycles         4377426                       # Number of cycles rename is running
system.switch_cpus_1.rename.SQFullEvents        46394                       # Number of times rename has blocked due to SQ full
system.switch_cpus_1.rename.SquashCycles         2839                       # Number of cycles rename is squashing
system.switch_cpus_1.rename.UnblockCycles      3304039                       # Number of cycles rename is unblocking
system.switch_cpus_1.rename.UndoneMaps         116981                       # Number of HB maps that are undone due to squashing
system.switch_cpus_1.rename.fp_rename_lookups     30297711                       # Number of floating rename lookups
system.switch_cpus_1.rename.int_rename_lookups     31163376                       # Number of integer rename lookups
system.switch_cpus_1.rename.serializeStallCycles         2199                       # count of cycles rename stalled for serializing inst
system.switch_cpus_1.rename.serializingInsts           88                       # count of serializing insts renamed
system.switch_cpus_1.rename.skidInsts         9322227                       # count of insts added to the skid buffer
system.switch_cpus_1.rename.tempSerializingInsts           91                       # count of temporary serializing insts renamed
system.switch_cpus_1.rob.rob_reads           46460923                       # The number of ROB reads
system.switch_cpus_1.rob.rob_writes          78173823                       # The number of ROB writes
system.switch_cpus_1.timesIdled                   360                       # Number of times that the entire CPU went into an idle state and unscheduled itself
system.tol2bus.pkt_count_system.cpu.icache.mem_side::system.l2.cpu_side         9036                       # Packet count per connected master and slave (bytes)
system.tol2bus.pkt_count_system.cpu.dcache.mem_side::system.l2.cpu_side       108656                       # Packet count per connected master and slave (bytes)
system.tol2bus.pkt_count::total                117692                       # Packet count per connected master and slave (bytes)
system.tol2bus.pkt_size_system.cpu.icache.mem_side::system.l2.cpu_side       380032                       # Cumulative packet size per connected master and slave (bytes)
system.tol2bus.pkt_size_system.cpu.dcache.mem_side::system.l2.cpu_side      4444160                       # Cumulative packet size per connected master and slave (bytes)
system.tol2bus.pkt_size::total                4824192                       # Cumulative packet size per connected master and slave (bytes)
system.tol2bus.pwrStateResidencyTicks::UNDEFINED  81973785000                       # Cumulative time (in ticks) in various power states
system.tol2bus.reqLayer0.occupancy          149477000                       # Layer occupancy (ticks)
system.tol2bus.reqLayer0.utilization              0.2                       # Layer utilization (%)
system.tol2bus.respLayer0.occupancy           9293997                       # Layer occupancy (ticks)
system.tol2bus.respLayer0.utilization             0.0                       # Layer utilization (%)
system.tol2bus.respLayer1.occupancy         109681998                       # Layer occupancy (ticks)
system.tol2bus.respLayer1.utilization             0.1                       # Layer utilization (%)
system.tol2bus.snoopTraffic                   1886016                       # Total snoop traffic (bytes)
system.tol2bus.snoop_fanout::samples            73706                       # Request fanout histogram
system.tol2bus.snoop_fanout::mean            0.006580                       # Request fanout histogram
system.tol2bus.snoop_fanout::stdev           0.080852                       # Request fanout histogram
system.tol2bus.snoop_fanout::underflows             0      0.00%      0.00% # Request fanout histogram
system.tol2bus.snoop_fanout::0                  73221     99.34%     99.34% # Request fanout histogram
system.tol2bus.snoop_fanout::1                    485      0.66%    100.00% # Request fanout histogram
system.tol2bus.snoop_fanout::2                      0      0.00%    100.00% # Request fanout histogram
system.tol2bus.snoop_fanout::3                      0      0.00%    100.00% # Request fanout histogram
system.tol2bus.snoop_fanout::4                      0      0.00%    100.00% # Request fanout histogram
system.tol2bus.snoop_fanout::overflows              0      0.00%    100.00% # Request fanout histogram
system.tol2bus.snoop_fanout::min_value              0                       # Request fanout histogram
system.tol2bus.snoop_fanout::max_value              1                       # Request fanout histogram
system.tol2bus.snoop_fanout::total              73706                       # Request fanout histogram
system.tol2bus.snoop_filter.hit_multi_requests            8                       # Number of requests hitting in the snoop filter with multiple (>1) holders of the requested data.
system.tol2bus.snoop_filter.hit_multi_snoops            0                       # Number of snoops hitting in the snoop filter with multiple (>1) holders of the requested data.
system.tol2bus.snoop_filter.hit_single_requests        38377                       # Number of requests hitting in the snoop filter with a single holder of the requested data.
system.tol2bus.snoop_filter.hit_single_snoops          477                       # Number of snoops hitting in the snoop filter with a single holder of the requested data.
system.tol2bus.snoop_filter.tot_requests        78035                       # Total number of requests made to the snoop filter.
system.tol2bus.snoop_filter.tot_snoops            477                       # Total number of snoops made to the snoop filter.
system.tol2bus.snoops                           34048                       # Total snoops (count)
system.tol2bus.trans_dist::ReadResp              6864                       # Transaction distribution
system.tol2bus.trans_dist::WritebackDirty        62349                       # Transaction distribution
system.tol2bus.trans_dist::WritebackClean         2841                       # Transaction distribution
system.tol2bus.trans_dist::CleanEvict            6694                       # Transaction distribution
system.tol2bus.trans_dist::HardPFReq              541                       # Transaction distribution
system.tol2bus.trans_dist::ReadExReq            32793                       # Transaction distribution
system.tol2bus.trans_dist::ReadExResp           32793                       # Transaction distribution
system.tol2bus.trans_dist::ReadCleanReq          3098                       # Transaction distribution
system.tol2bus.trans_dist::ReadSharedReq         3767                       # Transaction distribution
system.voltage_domain.voltage                       1                       # Voltage in Volts

---------- End Simulation Statistics   ----------
