Running SPEC test: leela

/home/victorfu/cpu2017/benchspec/CPU/541.leela_r
gem5 Simulator System.  http://gem5.org
gem5 is copyrighted software; use the --copyright option for details.

gem5 compiled Jun 12 2019 22:55:31
gem5 started Jun 14 2019 10:01:01
gem5 executing on tetracosa.cs.ucla.edu, pid 87600
command line: /home/victorfu/finalproject/gem5/build/X86/gem5.opt --outdir=/home/victorfu/output/bench_spec/simple/leela /home/victorfu/finalproject/gem5/configs/example/se.py --caches --l2cache --cmd=leela_r_base.victor_jun10-m64 --l1i_size=16kB --l1d_size=64kB --l2_size=256kB --cpu-type=DerivO3CPU --mem-type=DDR3_1600_8x8 --cpu-clock=1GHz --maxinsts=100000000 --options=ref.sgf --l2-hwp-type=TaggedPrefetcher --mlu_pf_type=perceptron

info: Standard input is not a terminal, disabling listeners.
Warning: l2-hwp-type is set ( TaggedPrefetcher ), but the current l2 has a default Hardware Prefetcher of type <class 'm5.params.NullSimObject'> , using the specified by the flag option.
MLU-Prefetch Perceptron Enabled.
Global frequency set at 1000000000000 ticks per second
warn: DRAM device capacity (8192 Mbytes) does not match the address range assigned (512 Mbytes)
PerceptronUnit is in mode: PC_DELTA_ADDR
warn: Sockets disabled, not accepting gdb connections
**** REAL SIMULATION ****
info: Entering event queue @ 0.  Starting simulation...
new weight for 0 is: -1
new weight for 1 is: -136982905
new weight for 2 is: 136983025
new weight for 0 is: -2
new weight for 1 is: -136982925
new weight for 2 is: 136983045
info: Increasing stack size by one page.
warn: ignoring syscall access(...)
warn: ignoring syscall mprotect(...)
warn: ignoring syscall mprotect(...)
warn: ignoring syscall mprotect(...)
warn: ignoring syscall mprotect(...)
warn: ignoring syscall mprotect(...)
info: Increasing stack size by one page.
warn: ignoring syscall mprotect(...)
warn: ignoring syscall mprotect(...)
info: Increasing stack size by one page.
info: Increasing stack size by one page.
info: Increasing stack size by one page.
info: Increasing stack size by one page.
info: Increasing stack size by one page.
info: Increasing stack size by one page.
info: Increasing stack size by one page.
info: Increasing stack size by one page.
info: Increasing stack size by one page.
info: Increasing stack size by one page.
info: Increasing stack size by one page.
info: Increasing stack size by one page.
info: Increasing stack size by one page.
info: Increasing stack size by one page.
info: Increasing stack size by one page.
info: Increasing stack size by one page.
info: Increasing stack size by one page.
info: Increasing stack size by one page.
info: Increasing stack size by one page.
info: Increasing stack size by one page.
info: Increasing stack size by one page.
info: Increasing stack size by one page.
info: Increasing stack size by one page.
info: Increasing stack size by one page.
info: Increasing stack size by one page.
info: Increasing stack size by one page.
info: Increasing stack size by one page.
info: Increasing stack size by one page.
info: Increasing stack size by one page.
info: Increasing stack size by one page.
info: Increasing stack size by one page.
info: Increasing stack size by one page.
warn: ignoring syscall mprotect(...)
warn: ignoring syscall mprotect(...)
warn: ignoring syscall mprotect(...)
new weight for 0 is: -3
new weight for 1 is: -161272511
new weight for 2 is: 161272623
new weight for 0 is: -4
new weight for 1 is: 4194300
new weight for 2 is: -4194172
new weight for 0 is: -5
new weight for 1 is: 4194340
new weight for 2 is: -4194212
new weight for 0 is: -6
new weight for 1 is: -136956929
new weight for 2 is: 136957017
new weight for 0 is: -7
new weight for 1 is: -136956969
new weight for 2 is: 136957057
new weight for 0 is: -8
new weight for 1 is: 4194284
new weight for 2 is: -4194156
new weight for 0 is: -9
new weight for 1 is: 4194324
new weight for 2 is: -4194196
new weight for 0 is: -10
new weight for 1 is: -136438740
new weight for 2 is: 136438862
new weight for 0 is: -11
new weight for 1 is: -136438894
new weight for 2 is: 136439000
new weight for 0 is: -12
new weight for 1 is: -136438894
new weight for 2 is: 136439000
new weight for 0 is: -13
new weight for 1 is: -161617383
new weight for 2 is: 161617511
new weight for 0 is: -14
new weight for 1 is: -161617383
new weight for 2 is: 161617511
new weight for 0 is: -15
new weight for 1 is: 4194281
new weight for 2 is: -4194153
new weight for 0 is: -16
new weight for 1 is: 4194321
new weight for 2 is: -4194193
new weight for 0 is: -17
new weight for 1 is: -145699764
new weight for 2 is: 145699836
new weight for 0 is: -18
new weight for 1 is: -145699804
new weight for 2 is: 145699876
new weight for 0 is: -19
new weight for 1 is: -145699804
new weight for 2 is: 145699876
new weight for 0 is: -20
new weight for 1 is: -145699804
new weight for 2 is: 145699876
new weight for 0 is: -21
new weight for 1 is: -145699804
new weight for 2 is: 145699876
new weight for 0 is: -21
new weight for 1 is: -145699804
new weight for 2 is: 145699876
new weight for 0 is: -21
new weight for 1 is: -161784865
new weight for 2 is: 161784993
new weight for 0 is: -21
new weight for 1 is: -161784865
new weight for 2 is: 161784993
new weight for 0 is: -21
new weight for 1 is: -161785057
new weight for 2 is: 161785185
new weight for 0 is: -21
new weight for 1 is: -161785057
new weight for 2 is: 161785185
new weight for 0 is: -21
new weight for 1 is: -161785441
new weight for 2 is: 161785569
new weight for 0 is: -21
new weight for 1 is: -161785441
new weight for 2 is: 161785569
new weight for 0 is: -21
new weight for 1 is: -161785633
new weight for 2 is: 161785761
new weight for 0 is: -21
new weight for 1 is: -161785633
new weight for 2 is: 161785761
new weight for 0 is: -21
new weight for 1 is: -161785825
new weight for 2 is: 161785953
new weight for 0 is: -21
new weight for 1 is: -161785825
new weight for 2 is: 161785953
new weight for 0 is: -21
new weight for 1 is: -161786017
new weight for 2 is: 161786145
new weight for 0 is: -21
new weight for 1 is: -161786017
new weight for 2 is: 161786145
new weight for 0 is: -21
new weight for 1 is: -161786017
new weight for 2 is: 161786145
new weight for 0 is: -21
new weight for 1 is: -161786017
new weight for 2 is: 161786145
new weight for 0 is: -21
new weight for 1 is: -161783983
new weight for 2 is: 161784055
new weight for 0 is: -21
new weight for 1 is: -161783983
new weight for 2 is: 161784055
new weight for 0 is: -21
new weight for 1 is: -161953415
new weight for 2 is: 161953519
new weight for 0 is: -21
new weight for 1 is: -161953415
new weight for 2 is: 161953519
new weight for 0 is: -21
new weight for 1 is: -161954071
new weight for 2 is: 161954159
new weight for 0 is: -21
new weight for 1 is: 4194284
new weight for 2 is: -4194156
new weight for 0 is: -21
new weight for 1 is: 4194324
new weight for 2 is: -4194196
new weight for 0 is: -21
new weight for 1 is: 4194324
new weight for 2 is: -4194196
new weight for 0 is: -21
new weight for 1 is: 4194324
new weight for 2 is: -4194196
new weight for 0 is: -21
new weight for 1 is: 4194324
new weight for 2 is: -4194196
new weight for 0 is: -21
new weight for 1 is: 4194324
new weight for 2 is: -4194196
new weight for 0 is: -21
new weight for 1 is: -158306285
new weight for 2 is: 158306413
new weight for 0 is: -21
new weight for 1 is: -158306292
new weight for 2 is: 158306420
new weight for 0 is: -21
new weight for 1 is: -158306292
new weight for 2 is: 158306420
new weight for 0 is: -21
new weight for 1 is: 4194284
new weight for 2 is: -4194156
new weight for 0 is: -21
new weight for 1 is: 4194324
new weight for 2 is: -4194196
new weight for 0 is: -21
new weight for 1 is: -149688496
new weight for 2 is: 149688624
new weight for 0 is: -21
new weight for 1 is: -149688536
new weight for 2 is: 149688664
new weight for 0 is: -21
new weight for 1 is: -149688536
new weight for 2 is: 149688664
new weight for 0 is: -21
new weight for 1 is: -149688536
new weight for 2 is: 149688664
new weight for 0 is: -21
new weight for 1 is: 4194284
new weight for 2 is: -4194156
new weight for 0 is: -21
new weight for 1 is: 4194324
new weight for 2 is: -4194196
new weight for 0 is: -21
new weight for 1 is: -136430329
new weight for 2 is: 136430428
new weight for 0 is: -21
new weight for 1 is: -136430369
new weight for 2 is: 136430468
new weight for 0 is: -21
new weight for 1 is: -136430369
new weight for 2 is: 136430468
new weight for 0 is: -21
new weight for 1 is: -149688787
new weight for 2 is: 149688915
new weight for 0 is: -21
new weight for 1 is: -149688787
new weight for 2 is: 149688915
new weight for 0 is: -21
new weight for 1 is: 4088131
new weight for 2 is: -4088035
new weight for 0 is: -21
new weight for 1 is: -158306252
new weight for 2 is: 158306380
new weight for 0 is: -21
new weight for 1 is: -152640598
new weight for 2 is: 152640670
new weight for 0 is: -21
new weight for 1 is: -152640598
new weight for 2 is: 152640670
new weight for 0 is: -21
new weight for 1 is: -161826646
new weight for 2 is: 161826774
new weight for 0 is: -21
new weight for 1 is: -161826646
new weight for 2 is: 161826774
new weight for 0 is: -21
new weight for 1 is: -162091870
new weight for 2 is: 162091990
new weight for 0 is: -21
new weight for 1 is: -162091870
new weight for 2 is: 162091990
new weight for 0 is: -21
new weight for 1 is: -161994436
new weight for 2 is: 161994564
new weight for 0 is: -21
new weight for 1 is: -161994436
new weight for 2 is: 161994564
new weight for 0 is: -21
new weight for 1 is: -161994628
new weight for 2 is: 161994756
new weight for 0 is: -21
new weight for 1 is: -161994628
new weight for 2 is: 161994756
new weight for 0 is: -21
new weight for 1 is: -161994820
new weight for 2 is: 161994948
new weight for 0 is: -21
new weight for 1 is: -161994820
new weight for 2 is: 161994948
new weight for 0 is: -21
new weight for 1 is: -161995012
new weight for 2 is: 161995140
new weight for 0 is: -21
new weight for 1 is: -161995012
new weight for 2 is: 161995140
new weight for 0 is: -21
new weight for 1 is: -161995204
new weight for 2 is: 161995332
new weight for 0 is: -21
new weight for 1 is: -161995204
new weight for 2 is: 161995332
new weight for 0 is: -21
new weight for 1 is: -161995396
new weight for 2 is: 161995524
new weight for 0 is: -21
new weight for 1 is: -161995396
new weight for 2 is: 161995524
new weight for 0 is: -21
new weight for 1 is: -161995588
new weight for 2 is: 161995716
new weight for 0 is: -21
new weight for 1 is: -161995588
new weight for 2 is: 161995716
new weight for 0 is: -21
new weight for 1 is: -161995780
new weight for 2 is: 161995908
new weight for 0 is: -21
new weight for 1 is: -161995780
new weight for 2 is: 161995908
new weight for 0 is: -21
new weight for 1 is: -161995972
new weight for 2 is: 161996100
new weight for 0 is: -21
new weight for 1 is: -161995972
new weight for 2 is: 161996100
new weight for 0 is: -21
new weight for 1 is: -161996164
new weight for 2 is: 161996292
new weight for 0 is: -21
new weight for 1 is: -161996164
new weight for 2 is: 161996292
new weight for 0 is: -21
new weight for 1 is: -161996356
new weight for 2 is: 161996484
new weight for 0 is: -21
new weight for 1 is: -161996356
new weight for 2 is: 161996484
new weight for 0 is: -21
new weight for 1 is: -161996548
new weight for 2 is: 161996676
new weight for 0 is: -21
new weight for 1 is: -161996548
new weight for 2 is: 161996676
new weight for 0 is: -21
new weight for 1 is: -161996740
new weight for 2 is: 161996868
new weight for 0 is: -21
new weight for 1 is: -161996740
new weight for 2 is: 161996868
new weight for 0 is: -21
new weight for 1 is: -161996932
new weight for 2 is: 161997060
new weight for 0 is: -21
new weight for 1 is: -161996932
new weight for 2 is: 161997060
new weight for 0 is: -21
new weight for 1 is: -161997124
new weight for 2 is: 161997252
new weight for 0 is: -21
new weight for 1 is: -161997124
new weight for 2 is: 161997252
new weight for 0 is: -21
new weight for 1 is: -161997316
new weight for 2 is: 161997444
new weight for 0 is: -21
new weight for 1 is: -161997316
new weight for 2 is: 161997444
new weight for 0 is: -21
new weight for 1 is: -161997508
new weight for 2 is: 161997636
new weight for 0 is: -21
new weight for 1 is: -161997508
new weight for 2 is: 161997636
new weight for 0 is: -21
new weight for 1 is: -161997508
new weight for 2 is: 161997636
new weight for 0 is: -21
new weight for 1 is: -161997508
new weight for 2 is: 161997636
new weight for 0 is: -21
new weight for 1 is: -161997764
new weight for 2 is: 161997892
new weight for 0 is: -21
new weight for 1 is: -161997764
new weight for 2 is: 161997892
new weight for 0 is: -21
new weight for 1 is: -161997956
new weight for 2 is: 161998084
new weight for 0 is: -21
new weight for 1 is: -161997956
new weight for 2 is: 161998084
new weight for 0 is: -21
new weight for 1 is: -161997956
new weight for 2 is: 161998084
new weight for 0 is: -21
new weight for 1 is: -161997956
new weight for 2 is: 161998084
new weight for 0 is: -21
new weight for 1 is: -161998340
new weight for 2 is: 161998468
new weight for 0 is: -21
new weight for 1 is: -161998340
new weight for 2 is: 161998468
new weight for 0 is: -21
new weight for 1 is: -161998532
new weight for 2 is: 161998660
new weight for 0 is: -21
new weight for 1 is: -161998532
new weight for 2 is: 161998660
new weight for 0 is: -21
new weight for 1 is: -161998532
new weight for 2 is: 161998660
new weight for 0 is: -21
new weight for 1 is: -161998532
new weight for 2 is: 161998660
new weight for 0 is: -21
new weight for 1 is: -161998724
new weight for 2 is: 161998852
new weight for 0 is: -21
new weight for 1 is: -161998724
new weight for 2 is: 161998852
new weight for 0 is: -21
new weight for 1 is: -161998916
new weight for 2 is: 161999044
new weight for 0 is: -21
new weight for 1 is: -161998916
new weight for 2 is: 161999044
new weight for 0 is: -21
new weight for 1 is: -161999108
new weight for 2 is: 161999236
new weight for 0 is: -21
new weight for 1 is: -161999108
new weight for 2 is: 161999236
new weight for 0 is: -21
new weight for 1 is: -161999300
new weight for 2 is: 161999428
new weight for 0 is: -21
new weight for 1 is: -161999300
new weight for 2 is: 161999428
new weight for 0 is: -21
new weight for 1 is: -161999492
new weight for 2 is: 161999620
new weight for 0 is: -21
new weight for 1 is: -161999492
new weight for 2 is: 161999620
new weight for 0 is: -21
new weight for 1 is: -161999684
new weight for 2 is: 161999812
new weight for 0 is: -21
new weight for 1 is: -161999684
new weight for 2 is: 161999812
new weight for 0 is: -21
new weight for 1 is: -162000068
new weight for 2 is: 162000196
new weight for 0 is: -21
new weight for 1 is: -162000068
new weight for 2 is: 162000196
new weight for 0 is: -21
new weight for 1 is: -162000260
new weight for 2 is: 162000388
new weight for 0 is: -21
new weight for 1 is: -162000260
new weight for 2 is: 162000388
new weight for 0 is: -21
new weight for 1 is: -162000452
new weight for 2 is: 162000580
new weight for 0 is: -21
new weight for 1 is: -162000452
new weight for 2 is: 162000580
new weight for 0 is: -21
new weight for 1 is: -162000452
new weight for 2 is: 162000580
new weight for 0 is: -21
new weight for 1 is: -162000452
new weight for 2 is: 162000580
new weight for 0 is: -21
new weight for 1 is: -162000644
new weight for 2 is: 162000772
new weight for 0 is: -21
new weight for 1 is: -162000644
new weight for 2 is: 162000772
new weight for 0 is: -21
new weight for 1 is: -162000836
new weight for 2 is: 162000964
new weight for 0 is: -21
new weight for 1 is: -162000836
new weight for 2 is: 162000964
new weight for 0 is: -21
new weight for 1 is: -162000836
new weight for 2 is: 162000964
new weight for 0 is: -21
new weight for 1 is: -162000836
new weight for 2 is: 162000964
new weight for 0 is: -21
new weight for 1 is: -162001028
new weight for 2 is: 162001156
new weight for 0 is: -21
new weight for 1 is: -162001028
new weight for 2 is: 162001156
new weight for 0 is: -21
new weight for 1 is: -162001412
new weight for 2 is: 162001540
new weight for 0 is: -21
new weight for 1 is: -162001412
new weight for 2 is: 162001540
new weight for 0 is: -21
new weight for 1 is: -162001796
new weight for 2 is: 162001924
new weight for 0 is: -21
new weight for 1 is: -162001796
new weight for 2 is: 162001924
new weight for 0 is: -21
new weight for 1 is: -162002052
new weight for 2 is: 162002180
new weight for 0 is: -21
new weight for 1 is: -162002052
new weight for 2 is: 162002180
new weight for 0 is: -21
new weight for 1 is: -162002244
new weight for 2 is: 162002372
new weight for 0 is: -21
new weight for 1 is: -162002244
new weight for 2 is: 162002372
new weight for 0 is: -21
new weight for 1 is: -162002436
new weight for 2 is: 162002564
new weight for 0 is: -21
new weight for 1 is: -162002436
new weight for 2 is: 162002564
new weight for 0 is: -21
new weight for 1 is: -162002628
new weight for 2 is: 162002756
new weight for 0 is: -21
new weight for 1 is: -162002628
new weight for 2 is: 162002756
new weight for 0 is: -21
new weight for 1 is: -162002820
new weight for 2 is: 162002948
new weight for 0 is: -21
new weight for 1 is: -162002820
new weight for 2 is: 162002948
new weight for 0 is: -21
new weight for 1 is: -162002820
new weight for 2 is: 162002948
new weight for 0 is: -21
new weight for 1 is: -162002820
new weight for 2 is: 162002948
new weight for 0 is: -21
new weight for 1 is: -162003012
new weight for 2 is: 162003140
new weight for 0 is: -21
new weight for 1 is: -162003012
new weight for 2 is: 162003140
new weight for 0 is: -21
new weight for 1 is: -162003204
new weight for 2 is: 162003332
new weight for 0 is: -21
new weight for 1 is: -162003204
new weight for 2 is: 162003332
new weight for 0 is: -21
new weight for 1 is: -162003396
new weight for 2 is: 162003524
new weight for 0 is: -21
new weight for 1 is: -162003396
new weight for 2 is: 162003524
new weight for 0 is: -21
new weight for 1 is: -162003780
new weight for 2 is: 162003908
new weight for 0 is: -21
new weight for 1 is: -162003780
new weight for 2 is: 162003908
new weight for 0 is: -21
new weight for 1 is: -162003972
new weight for 2 is: 162004100
new weight for 0 is: -21
new weight for 1 is: -162003972
new weight for 2 is: 162004100
new weight for 0 is: -21
new weight for 1 is: -162004164
new weight for 2 is: 162004292
new weight for 0 is: -21
new weight for 1 is: -162004164
new weight for 2 is: 162004292
new weight for 0 is: -21
new weight for 1 is: -162004164
new weight for 2 is: 162004292
new weight for 0 is: -21
new weight for 1 is: -162004164
new weight for 2 is: 162004292
new weight for 0 is: -21
new weight for 1 is: -162004356
new weight for 2 is: 162004484
new weight for 0 is: -21
new weight for 1 is: -162004356
new weight for 2 is: 162004484
new weight for 0 is: -21
new weight for 1 is: -162004548
new weight for 2 is: 162004676
new weight for 0 is: -21
new weight for 1 is: -162004548
new weight for 2 is: 162004676
new weight for 0 is: -21
new weight for 1 is: -162004740
new weight for 2 is: 162004868
new weight for 0 is: -21
new weight for 1 is: -162004740
new weight for 2 is: 162004868
new weight for 0 is: -21
new weight for 1 is: -162004932
new weight for 2 is: 162005060
new weight for 0 is: -21
new weight for 1 is: -162004932
new weight for 2 is: 162005060
new weight for 0 is: -21
new weight for 1 is: -162004932
new weight for 2 is: 162005060
new weight for 0 is: -21
new weight for 1 is: -162004932
new weight for 2 is: 162005060
new weight for 0 is: -21
new weight for 1 is: -162005124
new weight for 2 is: 162005252
new weight for 0 is: -21
new weight for 1 is: -162005124
new weight for 2 is: 162005252
new weight for 0 is: -21
new weight for 1 is: -162005316
new weight for 2 is: 162005444
new weight for 0 is: -21
new weight for 1 is: -162005316
new weight for 2 is: 162005444
new weight for 0 is: -21
new weight for 1 is: -162005508
new weight for 2 is: 162005636
new weight for 0 is: -21
new weight for 1 is: -162005508
new weight for 2 is: 162005636
new weight for 0 is: -21
new weight for 1 is: -162005700
new weight for 2 is: 162005828
new weight for 0 is: -21
new weight for 1 is: -162005700
new weight for 2 is: 162005828
new weight for 0 is: -21
new weight for 1 is: -162005956
new weight for 2 is: 162006084
new weight for 0 is: -21
new weight for 1 is: -162005956
new weight for 2 is: 162006084
new weight for 0 is: -21
new weight for 1 is: -162006148
new weight for 2 is: 162006276
new weight for 0 is: -21
new weight for 1 is: -162006148
new weight for 2 is: 162006276
new weight for 0 is: -21
new weight for 1 is: -162006340
new weight for 2 is: 162006468
new weight for 0 is: -21
new weight for 1 is: -162006340
new weight for 2 is: 162006468
new weight for 0 is: -21
new weight for 1 is: -162006532
new weight for 2 is: 162006660
new weight for 0 is: -21
new weight for 1 is: -162006532
new weight for 2 is: 162006660
new weight for 0 is: -21
new weight for 1 is: -162006532
new weight for 2 is: 162006660
new weight for 0 is: -21
new weight for 1 is: -162006532
new weight for 2 is: 162006660
new weight for 0 is: -21
new weight for 1 is: -162006724
new weight for 2 is: 162006852
new weight for 0 is: -21
new weight for 1 is: -162006724
new weight for 2 is: 162006852
new weight for 0 is: -21
new weight for 1 is: -162006916
new weight for 2 is: 162007044
new weight for 0 is: -21
new weight for 1 is: -162006916
new weight for 2 is: 162007044
new weight for 0 is: -21
new weight for 1 is: -162006916
new weight for 2 is: 162007044
new weight for 0 is: -21
new weight for 1 is: -162006916
new weight for 2 is: 162007044
new weight for 0 is: -21
new weight for 1 is: -162007108
new weight for 2 is: 162007236
new weight for 0 is: -21
new weight for 1 is: -162007108
new weight for 2 is: 162007236
new weight for 0 is: -21
new weight for 1 is: -162007492
new weight for 2 is: 162007620
new weight for 0 is: -21
new weight for 1 is: -162007492
new weight for 2 is: 162007620
new weight for 0 is: -21
new weight for 1 is: -162007684
new weight for 2 is: 162007812
new weight for 0 is: -21
new weight for 1 is: -162007684
new weight for 2 is: 162007812
new weight for 0 is: -21
new weight for 1 is: -162007876
new weight for 2 is: 162008004
new weight for 0 is: -21
new weight for 1 is: -162007876
new weight for 2 is: 162008004
new weight for 0 is: -21
new weight for 1 is: -162008068
new weight for 2 is: 162008196
new weight for 0 is: -21
new weight for 1 is: -162008068
new weight for 2 is: 162008196
new weight for 0 is: -21
new weight for 1 is: -162008068
new weight for 2 is: 162008196
new weight for 0 is: -21
new weight for 1 is: -162008068
new weight for 2 is: 162008196
new weight for 0 is: -21
new weight for 1 is: -162008260
new weight for 2 is: 162008388
new weight for 0 is: -21
new weight for 1 is: -162008260
new weight for 2 is: 162008388
new weight for 0 is: -21
new weight for 1 is: -162008452
new weight for 2 is: 162008580
new weight for 0 is: -21
new weight for 1 is: -162008452
new weight for 2 is: 162008580
new weight for 0 is: -21
new weight for 1 is: -162008644
new weight for 2 is: 162008772
new weight for 0 is: -21
new weight for 1 is: -162008644
new weight for 2 is: 162008772
new weight for 0 is: -21
new weight for 1 is: -162008836
new weight for 2 is: 162008964
new weight for 0 is: -21
new weight for 1 is: -162008836
new weight for 2 is: 162008964
new weight for 0 is: -21
new weight for 1 is: -162009028
new weight for 2 is: 162009156
new weight for 0 is: -21
new weight for 1 is: -162009028
new weight for 2 is: 162009156
new weight for 0 is: -21
new weight for 1 is: -162009220
new weight for 2 is: 162009348
new weight for 0 is: -21
new weight for 1 is: -162009220
new weight for 2 is: 162009348
new weight for 0 is: -21
new weight for 1 is: -162009412
new weight for 2 is: 162009540
new weight for 0 is: -21
new weight for 1 is: -162009412
new weight for 2 is: 162009540
new weight for 0 is: -21
new weight for 1 is: -162009604
new weight for 2 is: 162009732
new weight for 0 is: -21
new weight for 1 is: -162009604
new weight for 2 is: 162009732
new weight for 0 is: -21
new weight for 1 is: -162009796
new weight for 2 is: 162009924
new weight for 0 is: -21
new weight for 1 is: -162009796
new weight for 2 is: 162009924
new weight for 0 is: -21
new weight for 1 is: -162010052
new weight for 2 is: 162010180
new weight for 0 is: -21
new weight for 1 is: -162010052
new weight for 2 is: 162010180
new weight for 0 is: -21
new weight for 1 is: -162010436
new weight for 2 is: 162010564
new weight for 0 is: -21
new weight for 1 is: -162010436
new weight for 2 is: 162010564
new weight for 0 is: -21
new weight for 1 is: -162010628
new weight for 2 is: 162010756
new weight for 0 is: -21
new weight for 1 is: -162010628
new weight for 2 is: 162010756
new weight for 0 is: -21
new weight for 1 is: -162011012
new weight for 2 is: 162011140
new weight for 0 is: -21
new weight for 1 is: -162011012
new weight for 2 is: 162011140
new weight for 0 is: -21
new weight for 1 is: -162011204
new weight for 2 is: 162011332
new weight for 0 is: -21
new weight for 1 is: -162011204
new weight for 2 is: 162011332
new weight for 0 is: -21
new weight for 1 is: -162011396
new weight for 2 is: 162011524
new weight for 0 is: -21
new weight for 1 is: -162011396
new weight for 2 is: 162011524
new weight for 0 is: -21
new weight for 1 is: -162011588
new weight for 2 is: 162011716
new weight for 0 is: -21
new weight for 1 is: -162011588
new weight for 2 is: 162011716
new weight for 0 is: -21
new weight for 1 is: -162011780
new weight for 2 is: 162011908
new weight for 0 is: -21
new weight for 1 is: -162011780
new weight for 2 is: 162011908
new weight for 0 is: -21
new weight for 1 is: -162011972
new weight for 2 is: 162012100
new weight for 0 is: -21
new weight for 1 is: -162011972
new weight for 2 is: 162012100
new weight for 0 is: -21
new weight for 1 is: -162011972
new weight for 2 is: 162012100
new weight for 0 is: -21
new weight for 1 is: -162011972
new weight for 2 is: 162012100
new weight for 0 is: -21
new weight for 1 is: -162012164
new weight for 2 is: 162012292
new weight for 0 is: -21
new weight for 1 is: -162012164
new weight for 2 is: 162012292
new weight for 0 is: -21
new weight for 1 is: -162012164
new weight for 2 is: 162012292
new weight for 0 is: -21
new weight for 1 is: -162012164
new weight for 2 is: 162012292
new weight for 0 is: -21
new weight for 1 is: -162012356
new weight for 2 is: 162012484
new weight for 0 is: -21
new weight for 1 is: -162012356
new weight for 2 is: 162012484
new weight for 0 is: -21
new weight for 1 is: -162012356
new weight for 2 is: 162012484
new weight for 0 is: -21
new weight for 1 is: -162012356
new weight for 2 is: 162012484
new weight for 0 is: -21
new weight for 1 is: -162012548
new weight for 2 is: 162012676
new weight for 0 is: -21
new weight for 1 is: -162012548
new weight for 2 is: 162012676
new weight for 0 is: -21
new weight for 1 is: -162012740
new weight for 2 is: 162012868
new weight for 0 is: -21
new weight for 1 is: -162012740
new weight for 2 is: 162012868
new weight for 0 is: -21
new weight for 1 is: -162012932
new weight for 2 is: 162013060
new weight for 0 is: -21
new weight for 1 is: -162012932
new weight for 2 is: 162013060
new weight for 0 is: -21
new weight for 1 is: -162013124
new weight for 2 is: 162013252
new weight for 0 is: -21
new weight for 1 is: -162013124
new weight for 2 is: 162013252
new weight for 0 is: -21
new weight for 1 is: -162013316
new weight for 2 is: 162013444
new weight for 0 is: -21
new weight for 1 is: -162013316
new weight for 2 is: 162013444
new weight for 0 is: -21
new weight for 1 is: -162013508
new weight for 2 is: 162013636
new weight for 0 is: -21
new weight for 1 is: -162013508
new weight for 2 is: 162013636
new weight for 0 is: -21
new weight for 1 is: -162013700
new weight for 2 is: 162013828
new weight for 0 is: -21
new weight for 1 is: -162013700
new weight for 2 is: 162013828
new weight for 0 is: -21
new weight for 1 is: -162013892
new weight for 2 is: 162014020
new weight for 0 is: -21
new weight for 1 is: -162013892
new weight for 2 is: 162014020
new weight for 0 is: -21
new weight for 1 is: -162014148
new weight for 2 is: 162014276
new weight for 0 is: -21
new weight for 1 is: -162014148
new weight for 2 is: 162014276
new weight for 0 is: -21
new weight for 1 is: -162014340
new weight for 2 is: 162014468
new weight for 0 is: -21
new weight for 1 is: -162014340
new weight for 2 is: 162014468
new weight for 0 is: -21
new weight for 1 is: -162014532
new weight for 2 is: 162014660
new weight for 0 is: -21
new weight for 1 is: -162014532
new weight for 2 is: 162014660
new weight for 0 is: -21
new weight for 1 is: -162014724
new weight for 2 is: 162014852
new weight for 0 is: -21
new weight for 1 is: -162014724
new weight for 2 is: 162014852
new weight for 0 is: -21
new weight for 1 is: -162014916
new weight for 2 is: 162015044
new weight for 0 is: -21
new weight for 1 is: -162014916
new weight for 2 is: 162015044
new weight for 0 is: -21
new weight for 1 is: -162015108
new weight for 2 is: 162015236
new weight for 0 is: -21
new weight for 1 is: -162015108
new weight for 2 is: 162015236
new weight for 0 is: -21
new weight for 1 is: -162015492
new weight for 2 is: 162015620
new weight for 0 is: -21
new weight for 1 is: -162015492
new weight for 2 is: 162015620
new weight for 0 is: -21
new weight for 1 is: -162015492
new weight for 2 is: 162015620
new weight for 0 is: -21
new weight for 1 is: -162015492
new weight for 2 is: 162015620
new weight for 0 is: -21
new weight for 1 is: -162015876
new weight for 2 is: 162016004
new weight for 0 is: -21
new weight for 1 is: -162015876
new weight for 2 is: 162016004
new weight for 0 is: -21
new weight for 1 is: -162015876
new weight for 2 is: 162016004
new weight for 0 is: -21
new weight for 1 is: -162015876
new weight for 2 is: 162016004
new weight for 0 is: -21
new weight for 1 is: -162016068
new weight for 2 is: 162016196
new weight for 0 is: -21
new weight for 1 is: -162016068
new weight for 2 is: 162016196
new weight for 0 is: -21
new weight for 1 is: -162016068
new weight for 2 is: 162016196
new weight for 0 is: -21
new weight for 1 is: -162016068
new weight for 2 is: 162016196
new weight for 0 is: -21
new weight for 1 is: -162016260
new weight for 2 is: 162016388
new weight for 0 is: -21
new weight for 1 is: -162016260
new weight for 2 is: 162016388
new weight for 0 is: -21
new weight for 1 is: -162016452
new weight for 2 is: 162016580
new weight for 0 is: -21
new weight for 1 is: -162016452
new weight for 2 is: 162016580
new weight for 0 is: -21
new weight for 1 is: -162016644
new weight for 2 is: 162016772
new weight for 0 is: -21
new weight for 1 is: -162016644
new weight for 2 is: 162016772
new weight for 0 is: -21
new weight for 1 is: -162016836
new weight for 2 is: 162016964
new weight for 0 is: -21
new weight for 1 is: -162016836
new weight for 2 is: 162016964
new weight for 0 is: -21
new weight for 1 is: -162017028
new weight for 2 is: 162017156
new weight for 0 is: -21
new weight for 1 is: -162017028
new weight for 2 is: 162017156
new weight for 0 is: -21
new weight for 1 is: -162017220
new weight for 2 is: 162017348
new weight for 0 is: -21
new weight for 1 is: -162017220
new weight for 2 is: 162017348
new weight for 0 is: -21
new weight for 1 is: -162017604
new weight for 2 is: 162017732
new weight for 0 is: -21
new weight for 1 is: -162017604
new weight for 2 is: 162017732
new weight for 0 is: -21
new weight for 1 is: -162017988
new weight for 2 is: 162018116
new weight for 0 is: -21
new weight for 1 is: -162017988
new weight for 2 is: 162018116
new weight for 0 is: -21
new weight for 1 is: -162018244
new weight for 2 is: 162018372
new weight for 0 is: -21
new weight for 1 is: -162018244
new weight for 2 is: 162018372
new weight for 0 is: -21
new weight for 1 is: -162018436
new weight for 2 is: 162018564
new weight for 0 is: -21
new weight for 1 is: -162018436
new weight for 2 is: 162018564
new weight for 0 is: -21
new weight for 1 is: -162018436
new weight for 2 is: 162018564
new weight for 0 is: -21
new weight for 1 is: -162018436
new weight for 2 is: 162018564
new weight for 0 is: -21
new weight for 1 is: -162018628
new weight for 2 is: 162018756
new weight for 0 is: -21
new weight for 1 is: -162018628
new weight for 2 is: 162018756
new weight for 0 is: -21
new weight for 1 is: -162018820
new weight for 2 is: 162018948
new weight for 0 is: -21
new weight for 1 is: -162018820
new weight for 2 is: 162018948
new weight for 0 is: -21
new weight for 1 is: -162019012
new weight for 2 is: 162019140
new weight for 0 is: -21
new weight for 1 is: -162019012
new weight for 2 is: 162019140
new weight for 0 is: -21
new weight for 1 is: -162019012
new weight for 2 is: 162019140
new weight for 0 is: -21
new weight for 1 is: -162019012
new weight for 2 is: 162019140
new weight for 0 is: -21
new weight for 1 is: -162019396
new weight for 2 is: 162019524
new weight for 0 is: -21
new weight for 1 is: -162019396
new weight for 2 is: 162019524
new weight for 0 is: -21
new weight for 1 is: -162019588
new weight for 2 is: 162019716
new weight for 0 is: -21
new weight for 1 is: -162019588
new weight for 2 is: 162019716
new weight for 0 is: -21
new weight for 1 is: -162019780
new weight for 2 is: 162019908
new weight for 0 is: -21
new weight for 1 is: -162019780
new weight for 2 is: 162019908
new weight for 0 is: -21
new weight for 1 is: -162019972
new weight for 2 is: 162020100
new weight for 0 is: -21
new weight for 1 is: -162019972
new weight for 2 is: 162020100
new weight for 0 is: -21
new weight for 1 is: -162020164
new weight for 2 is: 162020292
new weight for 0 is: -21
new weight for 1 is: -162020164
new weight for 2 is: 162020292
new weight for 0 is: -21
new weight for 1 is: -162020356
new weight for 2 is: 162020484
new weight for 0 is: -21
new weight for 1 is: -162020356
new weight for 2 is: 162020484
new weight for 0 is: -21
new weight for 1 is: -162020740
new weight for 2 is: 162020868
new weight for 0 is: -21
new weight for 1 is: -162020740
new weight for 2 is: 162020868
new weight for 0 is: -21
new weight for 1 is: -162020932
new weight for 2 is: 162021060
new weight for 0 is: -21
new weight for 1 is: -162020932
new weight for 2 is: 162021060
new weight for 0 is: -21
new weight for 1 is: -162021124
new weight for 2 is: 162021252
new weight for 0 is: -21
new weight for 1 is: -162021124
new weight for 2 is: 162021252
new weight for 0 is: -21
new weight for 1 is: -162021316
new weight for 2 is: 162021444
new weight for 0 is: -21
new weight for 1 is: -162021316
new weight for 2 is: 162021444
new weight for 0 is: -21
new weight for 1 is: -162021508
new weight for 2 is: 162021636
new weight for 0 is: -21
new weight for 1 is: -162021508
new weight for 2 is: 162021636
new weight for 0 is: -21
new weight for 1 is: -162021700
new weight for 2 is: 162021828
new weight for 0 is: -21
new weight for 1 is: -162021700
new weight for 2 is: 162021828
new weight for 0 is: -21
new weight for 1 is: -162021892
new weight for 2 is: 162022020
new weight for 0 is: -21
new weight for 1 is: -162021892
new weight for 2 is: 162022020
new weight for 0 is: -21
new weight for 1 is: -162022084
new weight for 2 is: 162022212
new weight for 0 is: -21
new weight for 1 is: -162022084
new weight for 2 is: 162022212
new weight for 0 is: -21
new weight for 1 is: -162022276
new weight for 2 is: 162022404
new weight for 0 is: -21
new weight for 1 is: -162022276
new weight for 2 is: 162022404
new weight for 0 is: -21
new weight for 1 is: -162022340
new weight for 2 is: 162022468
new weight for 0 is: -21
new weight for 1 is: -162022340
new weight for 2 is: 162022468
new weight for 0 is: -21
new weight for 1 is: -162022532
new weight for 2 is: 162022660
new weight for 0 is: -21
new weight for 1 is: -162022532
new weight for 2 is: 162022660
new weight for 0 is: -21
new weight for 1 is: -162022724
new weight for 2 is: 162022852
new weight for 0 is: -21
new weight for 1 is: -162022724
new weight for 2 is: 162022852
new weight for 0 is: -21
new weight for 1 is: -162022916
new weight for 2 is: 162023044
new weight for 0 is: -21
new weight for 1 is: -162022916
new weight for 2 is: 162023044
new weight for 0 is: -21
new weight for 1 is: -162022916
new weight for 2 is: 162023044
new weight for 0 is: -21
new weight for 1 is: -162022916
new weight for 2 is: 162023044
new weight for 0 is: -21
new weight for 1 is: -162023108
new weight for 2 is: 162023236
new weight for 0 is: -21
new weight for 1 is: -162023108
new weight for 2 is: 162023236
new weight for 0 is: -21
new weight for 1 is: -162023108
new weight for 2 is: 162023236
new weight for 0 is: -21
new weight for 1 is: -162023108
new weight for 2 is: 162023236
new weight for 0 is: -21
new weight for 1 is: -162023300
new weight for 2 is: 162023428
new weight for 0 is: -21
new weight for 1 is: -162023300
new weight for 2 is: 162023428
new weight for 0 is: -21
new weight for 1 is: -162023300
new weight for 2 is: 162023428
new weight for 0 is: -21
new weight for 1 is: -162023300
new weight for 2 is: 162023428
new weight for 0 is: -21
new weight for 1 is: -162023492
new weight for 2 is: 162023620
new weight for 0 is: -21
new weight for 1 is: -162023492
new weight for 2 is: 162023620
new weight for 0 is: -21
new weight for 1 is: -162023684
new weight for 2 is: 162023812
new weight for 0 is: -21
new weight for 1 is: -162023684
new weight for 2 is: 162023812
new weight for 0 is: -21
new weight for 1 is: -162023876
new weight for 2 is: 162024004
new weight for 0 is: -21
new weight for 1 is: -162023876
new weight for 2 is: 162024004
new weight for 0 is: -21
new weight for 1 is: -162024068
new weight for 2 is: 162024196
new weight for 0 is: -21
new weight for 1 is: -162024068
new weight for 2 is: 162024196
new weight for 0 is: -21
new weight for 1 is: -162024260
new weight for 2 is: 162024388
new weight for 0 is: -21
new weight for 1 is: -162024260
new weight for 2 is: 162024388
new weight for 0 is: -21
new weight for 1 is: -162024452
new weight for 2 is: 162024580
new weight for 0 is: -21
new weight for 1 is: -162024452
new weight for 2 is: 162024580
new weight for 0 is: -21
new weight for 1 is: -162024644
new weight for 2 is: 162024772
new weight for 0 is: -21
new weight for 1 is: -162024644
new weight for 2 is: 162024772
new weight for 0 is: -21
new weight for 1 is: -162024836
new weight for 2 is: 162024964
new weight for 0 is: -21
new weight for 1 is: -162024836
new weight for 2 is: 162024964
new weight for 0 is: -21
new weight for 1 is: -162025028
new weight for 2 is: 162025156
new weight for 0 is: -21
new weight for 1 is: -162025028
new weight for 2 is: 162025156
new weight for 0 is: -21
new weight for 1 is: -162025220
new weight for 2 is: 162025348
new weight for 0 is: -21
new weight for 1 is: -162025220
new weight for 2 is: 162025348
new weight for 0 is: -21
new weight for 1 is: -162025412
new weight for 2 is: 162025540
new weight for 0 is: -21
new weight for 1 is: -162025412
new weight for 2 is: 162025540
new weight for 0 is: -21
new weight for 1 is: -162025796
new weight for 2 is: 162025924
new weight for 0 is: -21
new weight for 1 is: -162025796
new weight for 2 is: 162025924
new weight for 0 is: -21
new weight for 1 is: -162025988
new weight for 2 is: 162026116
new weight for 0 is: -21
new weight for 1 is: -162025988
new weight for 2 is: 162026116
new weight for 0 is: -21
new weight for 1 is: -162026372
new weight for 2 is: 162026500
new weight for 0 is: -21
new weight for 1 is: -162026372
new weight for 2 is: 162026500
new weight for 0 is: -21
new weight for 1 is: -162026436
new weight for 2 is: 162026564
new weight for 0 is: -21
new weight for 1 is: -162026436
new weight for 2 is: 162026564
new weight for 0 is: -21
new weight for 1 is: -162026436
new weight for 2 is: 162026564
new weight for 0 is: -21
new weight for 1 is: -162026436
new weight for 2 is: 162026564
new weight for 0 is: -21
new weight for 1 is: -162026628
new weight for 2 is: 162026756
new weight for 0 is: -21
new weight for 1 is: -162026628
new weight for 2 is: 162026756
new weight for 0 is: -21
new weight for 1 is: -162026820
new weight for 2 is: 162026948
new weight for 0 is: -21
new weight for 1 is: -162026820
new weight for 2 is: 162026948
new weight for 0 is: -21
new weight for 1 is: -162026820
new weight for 2 is: 162026948
new weight for 0 is: -21
new weight for 1 is: -162026820
new weight for 2 is: 162026948
new weight for 0 is: -21
new weight for 1 is: -162027012
new weight for 2 is: 162027140
new weight for 0 is: -21
new weight for 1 is: -162027012
new weight for 2 is: 162027140
new weight for 0 is: -21
new weight for 1 is: -162027204
new weight for 2 is: 162027332
new weight for 0 is: -21
new weight for 1 is: -162027204
new weight for 2 is: 162027332
new weight for 0 is: -21
new weight for 1 is: -162027396
new weight for 2 is: 162027524
new weight for 0 is: -21
new weight for 1 is: -162027396
new weight for 2 is: 162027524
new weight for 0 is: -21
new weight for 1 is: -162027588
new weight for 2 is: 162027716
new weight for 0 is: -21
new weight for 1 is: -162027588
new weight for 2 is: 162027716
new weight for 0 is: -21
new weight for 1 is: -162027780
new weight for 2 is: 162027908
new weight for 0 is: -21
new weight for 1 is: -162027780
new weight for 2 is: 162027908
new weight for 0 is: -21
new weight for 1 is: -162027972
new weight for 2 is: 162028100
new weight for 0 is: -21
new weight for 1 is: -162027972
new weight for 2 is: 162028100
new weight for 0 is: -21
new weight for 1 is: -162028164
new weight for 2 is: 162028292
new weight for 0 is: -21
new weight for 1 is: -162028164
new weight for 2 is: 162028292
new weight for 0 is: -21
new weight for 1 is: -162028356
new weight for 2 is: 162028484
new weight for 0 is: -21
new weight for 1 is: -162028356
new weight for 2 is: 162028484
new weight for 0 is: -21
new weight for 1 is: -162028548
new weight for 2 is: 162028676
new weight for 0 is: -21
new weight for 1 is: -162028548
new weight for 2 is: 162028676
new weight for 0 is: -21
new weight for 1 is: -162028740
new weight for 2 is: 162028868
new weight for 0 is: -21
new weight for 1 is: -162028740
new weight for 2 is: 162028868
new weight for 0 is: -21
new weight for 1 is: -162028932
new weight for 2 is: 162029060
new weight for 0 is: -21
new weight for 1 is: -162028932
new weight for 2 is: 162029060
new weight for 0 is: -21
new weight for 1 is: -162029124
new weight for 2 is: 162029252
new weight for 0 is: -21
new weight for 1 is: -162029124
new weight for 2 is: 162029252
new weight for 0 is: -21
new weight for 1 is: -162029316
new weight for 2 is: 162029444
new weight for 0 is: -21
new weight for 1 is: -162029316
new weight for 2 is: 162029444
new weight for 0 is: -21
new weight for 1 is: -162029508
new weight for 2 is: 162029636
new weight for 0 is: -21
new weight for 1 is: -162029508
new weight for 2 is: 162029636
new weight for 0 is: -21
new weight for 1 is: -162029700
new weight for 2 is: 162029828
new weight for 0 is: -21
new weight for 1 is: -162029700
new weight for 2 is: 162029828
new weight for 0 is: -21
new weight for 1 is: -162029892
new weight for 2 is: 162030020
new weight for 0 is: -21
new weight for 1 is: -162029892
new weight for 2 is: 162030020
new weight for 0 is: -21
new weight for 1 is: -162030084
new weight for 2 is: 162030212
new weight for 0 is: -21
new weight for 1 is: -162030084
new weight for 2 is: 162030212
new weight for 0 is: -21
new weight for 1 is: -162030276
new weight for 2 is: 162030404
new weight for 0 is: -21
new weight for 1 is: -162030276
new weight for 2 is: 162030404
new weight for 0 is: -21
new weight for 1 is: -162030468
new weight for 2 is: 162030596
new weight for 0 is: -21
new weight for 1 is: -162030468
new weight for 2 is: 162030596
new weight for 0 is: -21
new weight for 1 is: -162030532
new weight for 2 is: 162030660
new weight for 0 is: -21
new weight for 1 is: -162030532
new weight for 2 is: 162030660
new weight for 0 is: -21
new weight for 1 is: -162030916
new weight for 2 is: 162031044
new weight for 0 is: -21
new weight for 1 is: -162030916
new weight for 2 is: 162031044
new weight for 0 is: -21
new weight for 1 is: -162030916
new weight for 2 is: 162031044
new weight for 0 is: -21
new weight for 1 is: -162030916
new weight for 2 is: 162031044
new weight for 0 is: -21
new weight for 1 is: -162031108
new weight for 2 is: 162031236
new weight for 0 is: -21
new weight for 1 is: -162031108
new weight for 2 is: 162031236
new weight for 0 is: -21
new weight for 1 is: -162031300
new weight for 2 is: 162031428
new weight for 0 is: -21
new weight for 1 is: -162031300
new weight for 2 is: 162031428
new weight for 0 is: -21
new weight for 1 is: -162031492
new weight for 2 is: 162031620
new weight for 0 is: -21
new weight for 1 is: -162031492
new weight for 2 is: 162031620
new weight for 0 is: -21
new weight for 1 is: -162031684
new weight for 2 is: 162031812
new weight for 0 is: -21
new weight for 1 is: -162031684
new weight for 2 is: 162031812
new weight for 0 is: -21
new weight for 1 is: -162031876
new weight for 2 is: 162032004
new weight for 0 is: -21
new weight for 1 is: -162031876
new weight for 2 is: 162032004
new weight for 0 is: -21
new weight for 1 is: -162032068
new weight for 2 is: 162032196
new weight for 0 is: -21
new weight for 1 is: -162032068
new weight for 2 is: 162032196
new weight for 0 is: -21
new weight for 1 is: -162032260
new weight for 2 is: 162032388
new weight for 0 is: -21
new weight for 1 is: -162032260
new weight for 2 is: 162032388
new weight for 0 is: -21
new weight for 1 is: -162032452
new weight for 2 is: 162032580
new weight for 0 is: -21
new weight for 1 is: -162032452
new weight for 2 is: 162032580
new weight for 0 is: -21
new weight for 1 is: -162032644
new weight for 2 is: 162032772
new weight for 0 is: -21
new weight for 1 is: -162032644
new weight for 2 is: 162032772
new weight for 0 is: -21
new weight for 1 is: -162032836
new weight for 2 is: 162032964
new weight for 0 is: -21
new weight for 1 is: -162032836
new weight for 2 is: 162032964
new weight for 0 is: -21
new weight for 1 is: -162033028
new weight for 2 is: 162033156
new weight for 0 is: -21
new weight for 1 is: -162033028
new weight for 2 is: 162033156
new weight for 0 is: -21
new weight for 1 is: -162033220
new weight for 2 is: 162033348
new weight for 0 is: -21
new weight for 1 is: -162033220
new weight for 2 is: 162033348
new weight for 0 is: -21
new weight for 1 is: -162033412
new weight for 2 is: 162033540
new weight for 0 is: -21
new weight for 1 is: -162033412
new weight for 2 is: 162033540
new weight for 0 is: -21
new weight for 1 is: -162033604
new weight for 2 is: 162033732
new weight for 0 is: -21
new weight for 1 is: -162033604
new weight for 2 is: 162033732
new weight for 0 is: -21
new weight for 1 is: -162033796
new weight for 2 is: 162033924
new weight for 0 is: -21
new weight for 1 is: -162033796
new weight for 2 is: 162033924
new weight for 0 is: -21
new weight for 1 is: -162033988
new weight for 2 is: 162034116
new weight for 0 is: -21
new weight for 1 is: -162033988
new weight for 2 is: 162034116
new weight for 0 is: -21
new weight for 1 is: -162034180
new weight for 2 is: 162034308
new weight for 0 is: -21
new weight for 1 is: -162034180
new weight for 2 is: 162034308
new weight for 0 is: -21
new weight for 1 is: -162034372
new weight for 2 is: 162034500
new weight for 0 is: -21
new weight for 1 is: -162034372
new weight for 2 is: 162034500
new weight for 0 is: -21
new weight for 1 is: -162034564
new weight for 2 is: 162034692
new weight for 0 is: -21
new weight for 1 is: -162034564
new weight for 2 is: 162034692
new weight for 0 is: -21
new weight for 1 is: -162034628
new weight for 2 is: 162034756
new weight for 0 is: -21
new weight for 1 is: -162034628
new weight for 2 is: 162034756
new weight for 0 is: -21
new weight for 1 is: -162034820
new weight for 2 is: 162034948
new weight for 0 is: -21
new weight for 1 is: -162034820
new weight for 2 is: 162034948
new weight for 0 is: -21
new weight for 1 is: -162035012
new weight for 2 is: 162035140
new weight for 0 is: -21
new weight for 1 is: -162035012
new weight for 2 is: 162035140
new weight for 0 is: -21
new weight for 1 is: -162035204
new weight for 2 is: 162035332
new weight for 0 is: -21
new weight for 1 is: -162035204
new weight for 2 is: 162035332
new weight for 0 is: -21
new weight for 1 is: -162035396
new weight for 2 is: 162035524
new weight for 0 is: -21
new weight for 1 is: -162035396
new weight for 2 is: 162035524
new weight for 0 is: -21
new weight for 1 is: -162035588
new weight for 2 is: 162035716
new weight for 0 is: -21
new weight for 1 is: -162035588
new weight for 2 is: 162035716
new weight for 0 is: -21
new weight for 1 is: -162035780
new weight for 2 is: 162035908
new weight for 0 is: -21
new weight for 1 is: -162035780
new weight for 2 is: 162035908
new weight for 0 is: -21
new weight for 1 is: -162035972
new weight for 2 is: 162036100
new weight for 0 is: -21
new weight for 1 is: -162035972
new weight for 2 is: 162036100
new weight for 0 is: -21
new weight for 1 is: -162036164
new weight for 2 is: 162036292
new weight for 0 is: -21
new weight for 1 is: -162036164
new weight for 2 is: 162036292
new weight for 0 is: -21
new weight for 1 is: -162036356
new weight for 2 is: 162036484
new weight for 0 is: -21
new weight for 1 is: -162036356
new weight for 2 is: 162036484
new weight for 0 is: -21
new weight for 1 is: -162036548
new weight for 2 is: 162036676
new weight for 0 is: -21
new weight for 1 is: -162036548
new weight for 2 is: 162036676
new weight for 0 is: -21
new weight for 1 is: -162036740
new weight for 2 is: 162036868
new weight for 0 is: -21
new weight for 1 is: -162036740
new weight for 2 is: 162036868
new weight for 0 is: -21
new weight for 1 is: -162036932
new weight for 2 is: 162037060
new weight for 0 is: -21
new weight for 1 is: -162036932
new weight for 2 is: 162037060
new weight for 0 is: -21
new weight for 1 is: -162037124
new weight for 2 is: 162037252
new weight for 0 is: -21
new weight for 1 is: -162037124
new weight for 2 is: 162037252
new weight for 0 is: -21
new weight for 1 is: -162037316
new weight for 2 is: 162037444
new weight for 0 is: -21
new weight for 1 is: -162037316
new weight for 2 is: 162037444
new weight for 0 is: -21
new weight for 1 is: -162037508
new weight for 2 is: 162037636
new weight for 0 is: -21
new weight for 1 is: -162037508
new weight for 2 is: 162037636
new weight for 0 is: -21
new weight for 1 is: -162037700
new weight for 2 is: 162037828
new weight for 0 is: -21
new weight for 1 is: -162037700
new weight for 2 is: 162037828
new weight for 0 is: -21
new weight for 1 is: -162037892
new weight for 2 is: 162038020
new weight for 0 is: -21
new weight for 1 is: -162037892
new weight for 2 is: 162038020
new weight for 0 is: -21
new weight for 1 is: -162038084
new weight for 2 is: 162038212
new weight for 0 is: -21
new weight for 1 is: -162038084
new weight for 2 is: 162038212
new weight for 0 is: -21
new weight for 1 is: -162038276
new weight for 2 is: 162038404
new weight for 0 is: -21
new weight for 1 is: -162038276
new weight for 2 is: 162038404
new weight for 0 is: -21
new weight for 1 is: -162038468
new weight for 2 is: 162038596
new weight for 0 is: -21
new weight for 1 is: -162038468
new weight for 2 is: 162038596
new weight for 0 is: -21
new weight for 1 is: -162038724
new weight for 2 is: 162038852
new weight for 0 is: -21
new weight for 1 is: -162038724
new weight for 2 is: 162038852
new weight for 0 is: -21
new weight for 1 is: -162038916
new weight for 2 is: 162039044
new weight for 0 is: -21
new weight for 1 is: -162038916
new weight for 2 is: 162039044
new weight for 0 is: -21
new weight for 1 is: -162038916
new weight for 2 is: 162039044
new weight for 0 is: -21
new weight for 1 is: -162038916
new weight for 2 is: 162039044
new weight for 0 is: -21
new weight for 1 is: -162039108
new weight for 2 is: 162039236
new weight for 0 is: -21
new weight for 1 is: -162039108
new weight for 2 is: 162039236
new weight for 0 is: -21
new weight for 1 is: -162039300
new weight for 2 is: 162039428
new weight for 0 is: -21
new weight for 1 is: -162039300
new weight for 2 is: 162039428
new weight for 0 is: -21
new weight for 1 is: -162039492
new weight for 2 is: 162039620
new weight for 0 is: -21
new weight for 1 is: -162039492
new weight for 2 is: 162039620
new weight for 0 is: -21
new weight for 1 is: -162039684
new weight for 2 is: 162039812
new weight for 0 is: -21
new weight for 1 is: -162039684
new weight for 2 is: 162039812
new weight for 0 is: -21
new weight for 1 is: -162040068
new weight for 2 is: 162040196
new weight for 0 is: -21
new weight for 1 is: -162040068
new weight for 2 is: 162040196
new weight for 0 is: -21
new weight for 1 is: -162040068
new weight for 2 is: 162040196
new weight for 0 is: -21
new weight for 1 is: -162040068
new weight for 2 is: 162040196
new weight for 0 is: -21
new weight for 1 is: -162040260
new weight for 2 is: 162040388
new weight for 0 is: -21
new weight for 1 is: -162040260
new weight for 2 is: 162040388
new weight for 0 is: -21
new weight for 1 is: -162040452
new weight for 2 is: 162040580
new weight for 0 is: -21
new weight for 1 is: -162040452
new weight for 2 is: 162040580
new weight for 0 is: -21
new weight for 1 is: -162040644
new weight for 2 is: 162040772
new weight for 0 is: -21
new weight for 1 is: -162040644
new weight for 2 is: 162040772
new weight for 0 is: -21
new weight for 1 is: -162040836
new weight for 2 is: 162040964
new weight for 0 is: -21
new weight for 1 is: -162040836
new weight for 2 is: 162040964
new weight for 0 is: -21
new weight for 1 is: -162041028
new weight for 2 is: 162041156
new weight for 0 is: -21
new weight for 1 is: -162041028
new weight for 2 is: 162041156
new weight for 0 is: -21
new weight for 1 is: -162041220
new weight for 2 is: 162041348
new weight for 0 is: -21
new weight for 1 is: -162041220
new weight for 2 is: 162041348
new weight for 0 is: -21
new weight for 1 is: -162041412
new weight for 2 is: 162041540
new weight for 0 is: -21
new weight for 1 is: -162041412
new weight for 2 is: 162041540
new weight for 0 is: -21
new weight for 1 is: -162041604
new weight for 2 is: 162041732
new weight for 0 is: -21
new weight for 1 is: -162041604
new weight for 2 is: 162041732
new weight for 0 is: -21
new weight for 1 is: -162041796
new weight for 2 is: 162041924
new weight for 0 is: -21
new weight for 1 is: -162041796
new weight for 2 is: 162041924
new weight for 0 is: -21
new weight for 1 is: -162041988
new weight for 2 is: 162042116
new weight for 0 is: -21
new weight for 1 is: -162041988
new weight for 2 is: 162042116
new weight for 0 is: -21
new weight for 1 is: -162042180
new weight for 2 is: 162042308
new weight for 0 is: -21
new weight for 1 is: -162042180
new weight for 2 is: 162042308
new weight for 0 is: -21
new weight for 1 is: -162042372
new weight for 2 is: 162042500
new weight for 0 is: -21
new weight for 1 is: -162042372
new weight for 2 is: 162042500
new weight for 0 is: -21
new weight for 1 is: -162042564
new weight for 2 is: 162042692
new weight for 0 is: -21
new weight for 1 is: -162042564
new weight for 2 is: 162042692
new weight for 0 is: -21
new weight for 1 is: -162042756
new weight for 2 is: 162042884
new weight for 0 is: -21
new weight for 1 is: -162042756
new weight for 2 is: 162042884
new weight for 0 is: -21
new weight for 1 is: -162042820
new weight for 2 is: 162042948
new weight for 0 is: -21
new weight for 1 is: -162042820
new weight for 2 is: 162042948
new weight for 0 is: -21
new weight for 1 is: -162043012
new weight for 2 is: 162043140
new weight for 0 is: -21
new weight for 1 is: -162043012
new weight for 2 is: 162043140
new weight for 0 is: -21
new weight for 1 is: -162043204
new weight for 2 is: 162043332
new weight for 0 is: -21
new weight for 1 is: -162043204
new weight for 2 is: 162043332
new weight for 0 is: -21
new weight for 1 is: -162043396
new weight for 2 is: 162043524
new weight for 0 is: -21
new weight for 1 is: -162043396
new weight for 2 is: 162043524
new weight for 0 is: -21
new weight for 1 is: -162043588
new weight for 2 is: 162043716
new weight for 0 is: -21
new weight for 1 is: -162043588
new weight for 2 is: 162043716
new weight for 0 is: -21
new weight for 1 is: -162043780
new weight for 2 is: 162043908
new weight for 0 is: -21
new weight for 1 is: -162043780
new weight for 2 is: 162043908
new weight for 0 is: -21
new weight for 1 is: -162043972
new weight for 2 is: 162044100
new weight for 0 is: -21
new weight for 1 is: -162043972
new weight for 2 is: 162044100
new weight for 0 is: -21
new weight for 1 is: -162044164
new weight for 2 is: 162044292
new weight for 0 is: -21
new weight for 1 is: -162044164
new weight for 2 is: 162044292
new weight for 0 is: -21
new weight for 1 is: -162044356
new weight for 2 is: 162044484
new weight for 0 is: -21
new weight for 1 is: -162044356
new weight for 2 is: 162044484
new weight for 0 is: -21
new weight for 1 is: -162044548
new weight for 2 is: 162044676
new weight for 0 is: -21
new weight for 1 is: -162044548
new weight for 2 is: 162044676
new weight for 0 is: -21
new weight for 1 is: -162044740
new weight for 2 is: 162044868
new weight for 0 is: -21
new weight for 1 is: -162044740
new weight for 2 is: 162044868
new weight for 0 is: -21
new weight for 1 is: -162044932
new weight for 2 is: 162045060
new weight for 0 is: -21
new weight for 1 is: -162044932
new weight for 2 is: 162045060
new weight for 0 is: -21
new weight for 1 is: -162045316
new weight for 2 is: 162045444
new weight for 0 is: -21
new weight for 1 is: -162045316
new weight for 2 is: 162045444
new weight for 0 is: -21
new weight for 1 is: -162045508
new weight for 2 is: 162045636
new weight for 0 is: -21
new weight for 1 is: -162045508
new weight for 2 is: 162045636
new weight for 0 is: -21
new weight for 1 is: -162045508
new weight for 2 is: 162045636
new weight for 0 is: -21
new weight for 1 is: -162045508
new weight for 2 is: 162045636
new weight for 0 is: -21
new weight for 1 is: -162045700
new weight for 2 is: 162045828
new weight for 0 is: -21
new weight for 1 is: -162045700
new weight for 2 is: 162045828
new weight for 0 is: -21
new weight for 1 is: -162045892
new weight for 2 is: 162046020
new weight for 0 is: -21
new weight for 1 is: -162045892
new weight for 2 is: 162046020
new weight for 0 is: -21
new weight for 1 is: -162046084
new weight for 2 is: 162046212
new weight for 0 is: -21
new weight for 1 is: -162046084
new weight for 2 is: 162046212
new weight for 0 is: -21
new weight for 1 is: -162046276
new weight for 2 is: 162046404
new weight for 0 is: -21
new weight for 1 is: -162046276
new weight for 2 is: 162046404
new weight for 0 is: -21
new weight for 1 is: -162046468
new weight for 2 is: 162046596
new weight for 0 is: -21
new weight for 1 is: -162046468
new weight for 2 is: 162046596
new weight for 0 is: -21
new weight for 1 is: -162046660
new weight for 2 is: 162046788
new weight for 0 is: -21
new weight for 1 is: -162046660
new weight for 2 is: 162046788
new weight for 0 is: -21
new weight for 1 is: -162046916
new weight for 2 is: 162047044
new weight for 0 is: -21
new weight for 1 is: -162046916
new weight for 2 is: 162047044
new weight for 0 is: -21
new weight for 1 is: -162047108
new weight for 2 is: 162047236
new weight for 0 is: -21
new weight for 1 is: -162047108
new weight for 2 is: 162047236
new weight for 0 is: -21
new weight for 1 is: -162047300
new weight for 2 is: 162047428
new weight for 0 is: -21
new weight for 1 is: -162047300
new weight for 2 is: 162047428
new weight for 0 is: -21
new weight for 1 is: -162047300
new weight for 2 is: 162047428
new weight for 0 is: -21
new weight for 1 is: -162047300
new weight for 2 is: 162047428
new weight for 0 is: -21
new weight for 1 is: -162047492
new weight for 2 is: 162047620
new weight for 0 is: -21
new weight for 1 is: -162047492
new weight for 2 is: 162047620
new weight for 0 is: -21
new weight for 1 is: -162047684
new weight for 2 is: 162047812
new weight for 0 is: -21
new weight for 1 is: -162047684
new weight for 2 is: 162047812
new weight for 0 is: -21
new weight for 1 is: -162047876
new weight for 2 is: 162048004
new weight for 0 is: -21
new weight for 1 is: -162047876
new weight for 2 is: 162048004
new weight for 0 is: -21
new weight for 1 is: -162048068
new weight for 2 is: 162048196
new weight for 0 is: -21
new weight for 1 is: -162048068
new weight for 2 is: 162048196
new weight for 0 is: -21
new weight for 1 is: -162048260
new weight for 2 is: 162048388
new weight for 0 is: -21
new weight for 1 is: -162048260
new weight for 2 is: 162048388
new weight for 0 is: -21
new weight for 1 is: -162048452
new weight for 2 is: 162048580
new weight for 0 is: -21
new weight for 1 is: -162048452
new weight for 2 is: 162048580
new weight for 0 is: -21
new weight for 1 is: -162048644
new weight for 2 is: 162048772
new weight for 0 is: -21
new weight for 1 is: -162048644
new weight for 2 is: 162048772
new weight for 0 is: -21
new weight for 1 is: -162048836
new weight for 2 is: 162048964
new weight for 0 is: -21
new weight for 1 is: -162048836
new weight for 2 is: 162048964
new weight for 0 is: -21
new weight for 1 is: -162049028
new weight for 2 is: 162049156
new weight for 0 is: -21
new weight for 1 is: -162049028
new weight for 2 is: 162049156
new weight for 0 is: -21
new weight for 1 is: -162049220
new weight for 2 is: 162049348
new weight for 0 is: -21
new weight for 1 is: -162049220
new weight for 2 is: 162049348
new weight for 0 is: -21
new weight for 1 is: -162049412
new weight for 2 is: 162049540
new weight for 0 is: -21
new weight for 1 is: -162049412
new weight for 2 is: 162049540
new weight for 0 is: -21
new weight for 1 is: -162049604
new weight for 2 is: 162049732
new weight for 0 is: -21
new weight for 1 is: -162049604
new weight for 2 is: 162049732
new weight for 0 is: -21
new weight for 1 is: -162049796
new weight for 2 is: 162049924
new weight for 0 is: -21
new weight for 1 is: -162049796
new weight for 2 is: 162049924
new weight for 0 is: -21
new weight for 1 is: -162049988
new weight for 2 is: 162050116
new weight for 0 is: -21
new weight for 1 is: -162049988
new weight for 2 is: 162050116
new weight for 0 is: -21
new weight for 1 is: -162050180
new weight for 2 is: 162050308
new weight for 0 is: -21
new weight for 1 is: -162050180
new weight for 2 is: 162050308
new weight for 0 is: -21
new weight for 1 is: -162050372
new weight for 2 is: 162050500
new weight for 0 is: -21
new weight for 1 is: -162050372
new weight for 2 is: 162050500
new weight for 0 is: -21
new weight for 1 is: -162050564
new weight for 2 is: 162050692
new weight for 0 is: -21
new weight for 1 is: -162050564
new weight for 2 is: 162050692
new weight for 0 is: -21
new weight for 1 is: -162050756
new weight for 2 is: 162050884
new weight for 0 is: -21
new weight for 1 is: -162050756
new weight for 2 is: 162050884
new weight for 0 is: -21
new weight for 1 is: -162050948
new weight for 2 is: 162051076
new weight for 0 is: -21
new weight for 1 is: -162050948
new weight for 2 is: 162051076
new weight for 0 is: -21
new weight for 1 is: -162051012
new weight for 2 is: 162051140
new weight for 0 is: -21
new weight for 1 is: -162051012
new weight for 2 is: 162051140
new weight for 0 is: -21
new weight for 1 is: -162051204
new weight for 2 is: 162051332
new weight for 0 is: -21
new weight for 1 is: -162051204
new weight for 2 is: 162051332
new weight for 0 is: -21
new weight for 1 is: -162051396
new weight for 2 is: 162051524
new weight for 0 is: -21
new weight for 1 is: -162051396
new weight for 2 is: 162051524
new weight for 0 is: -21
new weight for 1 is: -162051588
new weight for 2 is: 162051716
new weight for 0 is: -21
new weight for 1 is: -162051588
new weight for 2 is: 162051716
new weight for 0 is: -21
new weight for 1 is: -162051780
new weight for 2 is: 162051908
new weight for 0 is: -21
new weight for 1 is: -162051780
new weight for 2 is: 162051908
new weight for 0 is: -21
new weight for 1 is: -162052164
new weight for 2 is: 162052292
new weight for 0 is: -21
new weight for 1 is: -162052164
new weight for 2 is: 162052292
new weight for 0 is: -21
new weight for 1 is: -162052356
new weight for 2 is: 162052484
new weight for 0 is: -21
new weight for 1 is: -162052356
new weight for 2 is: 162052484
new weight for 0 is: -21
new weight for 1 is: -162052740
new weight for 2 is: 162052868
new weight for 0 is: -21
new weight for 1 is: -162052740
new weight for 2 is: 162052868
new weight for 0 is: -21
new weight for 1 is: -162052932
new weight for 2 is: 162053060
new weight for 0 is: -21
new weight for 1 is: -162052932
new weight for 2 is: 162053060
new weight for 0 is: -21
new weight for 1 is: -162053124
new weight for 2 is: 162053252
new weight for 0 is: -21
new weight for 1 is: -162053124
new weight for 2 is: 162053252
new weight for 0 is: -21
new weight for 1 is: -162053316
new weight for 2 is: 162053444
new weight for 0 is: -21
new weight for 1 is: -162053316
new weight for 2 is: 162053444
new weight for 0 is: -21
new weight for 1 is: -162053508
new weight for 2 is: 162053636
new weight for 0 is: -21
new weight for 1 is: -162053508
new weight for 2 is: 162053636
new weight for 0 is: -21
new weight for 1 is: -162053700
new weight for 2 is: 162053828
new weight for 0 is: -21
new weight for 1 is: -162053700
new weight for 2 is: 162053828
new weight for 0 is: -21
new weight for 1 is: -162053892
new weight for 2 is: 162054020
new weight for 0 is: -21
new weight for 1 is: -162053892
new weight for 2 is: 162054020
new weight for 0 is: -21
new weight for 1 is: -162054084
new weight for 2 is: 162054212
new weight for 0 is: -21
new weight for 1 is: -162054084
new weight for 2 is: 162054212
new weight for 0 is: -21
new weight for 1 is: -162054276
new weight for 2 is: 162054404
new weight for 0 is: -21
new weight for 1 is: -162054276
new weight for 2 is: 162054404
new weight for 0 is: -21
new weight for 1 is: -162054468
new weight for 2 is: 162054596
new weight for 0 is: -21
new weight for 1 is: -162054468
new weight for 2 is: 162054596
new weight for 0 is: -21
new weight for 1 is: -162054660
new weight for 2 is: 162054788
new weight for 0 is: -21
new weight for 1 is: -162054660
new weight for 2 is: 162054788
new weight for 0 is: -21
new weight for 1 is: -162054852
new weight for 2 is: 162054980
new weight for 0 is: -21
new weight for 1 is: -162054852
new weight for 2 is: 162054980
new weight for 0 is: -21
new weight for 1 is: -162055108
new weight for 2 is: 162055236
new weight for 0 is: -21
new weight for 1 is: -162055108
new weight for 2 is: 162055236
new weight for 0 is: -21
new weight for 1 is: -162055108
new weight for 2 is: 162055236
new weight for 0 is: -21
new weight for 1 is: -162055108
new weight for 2 is: 162055236
new weight for 0 is: -21
new weight for 1 is: -162055300
new weight for 2 is: 162055428
new weight for 0 is: -21
new weight for 1 is: -162055300
new weight for 2 is: 162055428
new weight for 0 is: -21
new weight for 1 is: -162055300
new weight for 2 is: 162055428
new weight for 0 is: -21
new weight for 1 is: -162055300
new weight for 2 is: 162055428
new weight for 0 is: -21
new weight for 1 is: -162055492
new weight for 2 is: 162055620
new weight for 0 is: -21
new weight for 1 is: -162055492
new weight for 2 is: 162055620
new weight for 0 is: -21
new weight for 1 is: -162055492
new weight for 2 is: 162055620
new weight for 0 is: -21
new weight for 1 is: -162055492
new weight for 2 is: 162055620
new weight for 0 is: -21
new weight for 1 is: -162055684
new weight for 2 is: 162055812
new weight for 0 is: -21
new weight for 1 is: -162055684
new weight for 2 is: 162055812
new weight for 0 is: -21
new weight for 1 is: -162055876
new weight for 2 is: 162056004
new weight for 0 is: -21
new weight for 1 is: -162055876
new weight for 2 is: 162056004
new weight for 0 is: -21
new weight for 1 is: -162056068
new weight for 2 is: 162056196
new weight for 0 is: -21
new weight for 1 is: -162056068
new weight for 2 is: 162056196
new weight for 0 is: -21
new weight for 1 is: -162056260
new weight for 2 is: 162056388
new weight for 0 is: -21
new weight for 1 is: -162056260
new weight for 2 is: 162056388
new weight for 0 is: -21
new weight for 1 is: -162056452
new weight for 2 is: 162056580
new weight for 0 is: -21
new weight for 1 is: -162056452
new weight for 2 is: 162056580
new weight for 0 is: -21
new weight for 1 is: -162056644
new weight for 2 is: 162056772
new weight for 0 is: -21
new weight for 1 is: -162056644
new weight for 2 is: 162056772
new weight for 0 is: -21
new weight for 1 is: -162056836
new weight for 2 is: 162056964
new weight for 0 is: -21
new weight for 1 is: -162056836
new weight for 2 is: 162056964
new weight for 0 is: -21
new weight for 1 is: -162057028
new weight for 2 is: 162057156
new weight for 0 is: -21
new weight for 1 is: -162057028
new weight for 2 is: 162057156
new weight for 0 is: -21
new weight for 1 is: -162057220
new weight for 2 is: 162057348
new weight for 0 is: -21
new weight for 1 is: -162057220
new weight for 2 is: 162057348
new weight for 0 is: -21
new weight for 1 is: -162057412
new weight for 2 is: 162057540
new weight for 0 is: -21
new weight for 1 is: -162057412
new weight for 2 is: 162057540
new weight for 0 is: -21
new weight for 1 is: -162057604
new weight for 2 is: 162057732
new weight for 0 is: -21
new weight for 1 is: -162057604
new weight for 2 is: 162057732
new weight for 0 is: -21
new weight for 1 is: -162057796
new weight for 2 is: 162057924
new weight for 0 is: -21
new weight for 1 is: -162057796
new weight for 2 is: 162057924
new weight for 0 is: -21
new weight for 1 is: -162057988
new weight for 2 is: 162058116
new weight for 0 is: -21
new weight for 1 is: -162057988
new weight for 2 is: 162058116
new weight for 0 is: -21
new weight for 1 is: -162058180
new weight for 2 is: 162058308
new weight for 0 is: -21
new weight for 1 is: -162058180
new weight for 2 is: 162058308
new weight for 0 is: -21
new weight for 1 is: -162058372
new weight for 2 is: 162058500
new weight for 0 is: -21
new weight for 1 is: -162058372
new weight for 2 is: 162058500
new weight for 0 is: -21
new weight for 1 is: -162058564
new weight for 2 is: 162058692
new weight for 0 is: -21
new weight for 1 is: -162058564
new weight for 2 is: 162058692
new weight for 0 is: -21
new weight for 1 is: -162058756
new weight for 2 is: 162058884
new weight for 0 is: -21
new weight for 1 is: -162058756
new weight for 2 is: 162058884
new weight for 0 is: -21
new weight for 1 is: -162058948
new weight for 2 is: 162059076
new weight for 0 is: -21
new weight for 1 is: -162058948
new weight for 2 is: 162059076
new weight for 0 is: -21
new weight for 1 is: -162059140
new weight for 2 is: 162059268
new weight for 0 is: -21
new weight for 1 is: -162059140
new weight for 2 is: 162059268
new weight for 0 is: -21
new weight for 1 is: -162059204
new weight for 2 is: 162059332
new weight for 0 is: -21
new weight for 1 is: -162059204
new weight for 2 is: 162059332
new weight for 0 is: -21
new weight for 1 is: -162059396
new weight for 2 is: 162059524
new weight for 0 is: -21
new weight for 1 is: -162059396
new weight for 2 is: 162059524
new weight for 0 is: -21
new weight for 1 is: -162059588
new weight for 2 is: 162059716
new weight for 0 is: -21
new weight for 1 is: -162059588
new weight for 2 is: 162059716
new weight for 0 is: -21
new weight for 1 is: -162059780
new weight for 2 is: 162059908
new weight for 0 is: -21
new weight for 1 is: -162059780
new weight for 2 is: 162059908
new weight for 0 is: -21
new weight for 1 is: -162059972
new weight for 2 is: 162060100
new weight for 0 is: -21
new weight for 1 is: -162059972
new weight for 2 is: 162060100
new weight for 0 is: -21
new weight for 1 is: -162060164
new weight for 2 is: 162060292
new weight for 0 is: -21
new weight for 1 is: -162060164
new weight for 2 is: 162060292
new weight for 0 is: -21
new weight for 1 is: -162060356
new weight for 2 is: 162060484
new weight for 0 is: -21
new weight for 1 is: -162060356
new weight for 2 is: 162060484
new weight for 0 is: -21
new weight for 1 is: -162060548
new weight for 2 is: 162060676
new weight for 0 is: -21
new weight for 1 is: -162060548
new weight for 2 is: 162060676
new weight for 0 is: -21
new weight for 1 is: -162060740
new weight for 2 is: 162060868
new weight for 0 is: -21
new weight for 1 is: -162060740
new weight for 2 is: 162060868
new weight for 0 is: -21
new weight for 1 is: -162060932
new weight for 2 is: 162061060
new weight for 0 is: -21
new weight for 1 is: -162060932
new weight for 2 is: 162061060
new weight for 0 is: -21
new weight for 1 is: -162061124
new weight for 2 is: 162061252
new weight for 0 is: -21
new weight for 1 is: -162061124
new weight for 2 is: 162061252
new weight for 0 is: -21
new weight for 1 is: -162061316
new weight for 2 is: 162061444
new weight for 0 is: -21
new weight for 1 is: -162061316
new weight for 2 is: 162061444
new weight for 0 is: -21
new weight for 1 is: -162061508
new weight for 2 is: 162061636
new weight for 0 is: -21
new weight for 1 is: -162061508
new weight for 2 is: 162061636
new weight for 0 is: -21
new weight for 1 is: -162061700
new weight for 2 is: 162061828
new weight for 0 is: -21
new weight for 1 is: -162061700
new weight for 2 is: 162061828
new weight for 0 is: -21
new weight for 1 is: -162061892
new weight for 2 is: 162062020
new weight for 0 is: -21
new weight for 1 is: -162061892
new weight for 2 is: 162062020
new weight for 0 is: -21
new weight for 1 is: -162062084
new weight for 2 is: 162062212
new weight for 0 is: -21
new weight for 1 is: -162062084
new weight for 2 is: 162062212
new weight for 0 is: -21
new weight for 1 is: -162062276
new weight for 2 is: 162062404
new weight for 0 is: -21
new weight for 1 is: -162062276
new weight for 2 is: 162062404
new weight for 0 is: -21
new weight for 1 is: -162062468
new weight for 2 is: 162062596
new weight for 0 is: -21
new weight for 1 is: -162062468
new weight for 2 is: 162062596
new weight for 0 is: -21
new weight for 1 is: -162062660
new weight for 2 is: 162062788
new weight for 0 is: -21
new weight for 1 is: -162062660
new weight for 2 is: 162062788
new weight for 0 is: -21
new weight for 1 is: -162062852
new weight for 2 is: 162062980
new weight for 0 is: -21
new weight for 1 is: -162062852
new weight for 2 is: 162062980
new weight for 0 is: -21
new weight for 1 is: -162063044
new weight for 2 is: 162063172
new weight for 0 is: -21
new weight for 1 is: -162063044
new weight for 2 is: 162063172
new weight for 0 is: -21
new weight for 1 is: -162063236
new weight for 2 is: 162063364
new weight for 0 is: -21
new weight for 1 is: -162063236
new weight for 2 is: 162063364
new weight for 0 is: -21
new weight for 1 is: -162063300
new weight for 2 is: 162063428
new weight for 0 is: -21
new weight for 1 is: -162063300
new weight for 2 is: 162063428
new weight for 0 is: -21
new weight for 1 is: -162063492
new weight for 2 is: 162063620
new weight for 0 is: -21
new weight for 1 is: -162063492
new weight for 2 is: 162063620
new weight for 0 is: -21
new weight for 1 is: -162063684
new weight for 2 is: 162063812
new weight for 0 is: -21
new weight for 1 is: -162063684
new weight for 2 is: 162063812
new weight for 0 is: -21
new weight for 1 is: -162063876
new weight for 2 is: 162064004
new weight for 0 is: -21
new weight for 1 is: -162063876
new weight for 2 is: 162064004
new weight for 0 is: -21
new weight for 1 is: -162064068
new weight for 2 is: 162064196
new weight for 0 is: -21
new weight for 1 is: -162064068
new weight for 2 is: 162064196
new weight for 0 is: -21
new weight for 1 is: -162064260
new weight for 2 is: 162064388
new weight for 0 is: -21
new weight for 1 is: -162064260
new weight for 2 is: 162064388
new weight for 0 is: -21
new weight for 1 is: -162064452
new weight for 2 is: 162064580
new weight for 0 is: -21
new weight for 1 is: -162064452
new weight for 2 is: 162064580
new weight for 0 is: -21
new weight for 1 is: -162064644
new weight for 2 is: 162064772
new weight for 0 is: -21
new weight for 1 is: -162064644
new weight for 2 is: 162064772
new weight for 0 is: -21
new weight for 1 is: -162064836
new weight for 2 is: 162064964
new weight for 0 is: -21
new weight for 1 is: -162064836
new weight for 2 is: 162064964
new weight for 0 is: -21
new weight for 1 is: -162065028
new weight for 2 is: 162065156
new weight for 0 is: -21
new weight for 1 is: -162065028
new weight for 2 is: 162065156
new weight for 0 is: -21
new weight for 1 is: -162065220
new weight for 2 is: 162065348
new weight for 0 is: -21
new weight for 1 is: -162065220
new weight for 2 is: 162065348
new weight for 0 is: -21
new weight for 1 is: -162065412
new weight for 2 is: 162065540
new weight for 0 is: -21
new weight for 1 is: -162065412
new weight for 2 is: 162065540
new weight for 0 is: -21
new weight for 1 is: -162065604
new weight for 2 is: 162065732
new weight for 0 is: -21
new weight for 1 is: -162065604
new weight for 2 is: 162065732
new weight for 0 is: -21
new weight for 1 is: -162065796
new weight for 2 is: 162065924
new weight for 0 is: -21
new weight for 1 is: -162065796
new weight for 2 is: 162065924
new weight for 0 is: -21
new weight for 1 is: -162065988
new weight for 2 is: 162066116
new weight for 0 is: -21
new weight for 1 is: -162065988
new weight for 2 is: 162066116
new weight for 0 is: -21
new weight for 1 is: -162066180
new weight for 2 is: 162066308
new weight for 0 is: -21
new weight for 1 is: -162066180
new weight for 2 is: 162066308
new weight for 0 is: -21
new weight for 1 is: -162066372
new weight for 2 is: 162066500
new weight for 0 is: -21
new weight for 1 is: -162066372
new weight for 2 is: 162066500
new weight for 0 is: -21
new weight for 1 is: -162066564
new weight for 2 is: 162066692
new weight for 0 is: -21
new weight for 1 is: -162066564
new weight for 2 is: 162066692
new weight for 0 is: -21
new weight for 1 is: -162066756
new weight for 2 is: 162066884
new weight for 0 is: -21
new weight for 1 is: -162066756
new weight for 2 is: 162066884
new weight for 0 is: -21
new weight for 1 is: -162066948
new weight for 2 is: 162067076
new weight for 0 is: -21
new weight for 1 is: -162066948
new weight for 2 is: 162067076
new weight for 0 is: -21
new weight for 1 is: -162067140
new weight for 2 is: 162067268
new weight for 0 is: -21
new weight for 1 is: -162067140
new weight for 2 is: 162067268
new weight for 0 is: -21
new weight for 1 is: -162067332
new weight for 2 is: 162067460
new weight for 0 is: -21
new weight for 1 is: -162067332
new weight for 2 is: 162067460
new weight for 0 is: -21
new weight for 1 is: -162067396
new weight for 2 is: 162067524
new weight for 0 is: -21
new weight for 1 is: -162067396
new weight for 2 is: 162067524
new weight for 0 is: -21
new weight for 1 is: -162067588
new weight for 2 is: 162067716
new weight for 0 is: -21
new weight for 1 is: -162067588
new weight for 2 is: 162067716
new weight for 0 is: -21
new weight for 1 is: -162067780
new weight for 2 is: 162067908
new weight for 0 is: -21
new weight for 1 is: -162067780
new weight for 2 is: 162067908
new weight for 0 is: -21
new weight for 1 is: -162067972
new weight for 2 is: 162068100
new weight for 0 is: -21
new weight for 1 is: -162067972
new weight for 2 is: 162068100
new weight for 0 is: -21
new weight for 1 is: -162068164
new weight for 2 is: 162068292
new weight for 0 is: -21
new weight for 1 is: -162068164
new weight for 2 is: 162068292
new weight for 0 is: -21
new weight for 1 is: -162068356
new weight for 2 is: 162068484
new weight for 0 is: -21
new weight for 1 is: -162068356
new weight for 2 is: 162068484
new weight for 0 is: -21
new weight for 1 is: -162068548
new weight for 2 is: 162068676
new weight for 0 is: -21
new weight for 1 is: -162068548
new weight for 2 is: 162068676
new weight for 0 is: -21
new weight for 1 is: -162068740
new weight for 2 is: 162068868
[...]
new weight for 1 is: -164080644
new weight for 2 is: 164080772
new weight for 0 is: -21
new weight for 1 is: -164080644
new weight for 2 is: 164080772
new weight for 0 is: -21
new weight for 1 is: -164080836
new weight for 2 is: 164080964
new weight for 0 is: -21
new weight for 1 is: -164080836
new weight for 2 is: 164080964
new weight for 0 is: -21
new weight for 1 is: -164081028
new weight for 2 is: 164081156
new weight for 0 is: -21
new weight for 1 is: -164081028
new weight for 2 is: 164081156
new weight for 0 is: -21
new weight for 1 is: -164081220
new weight for 2 is: 164081348
new weight for 0 is: -21
new weight for 1 is: -164081220
new weight for 2 is: 164081348
new weight for 0 is: -21
new weight for 1 is: -164081412
new weight for 2 is: 164081540
new weight for 0 is: -21
new weight for 1 is: -164081412
new weight for 2 is: 164081540
new weight for 0 is: -21
new weight for 1 is: -164081604
new weight for 2 is: 164081732
new weight for 0 is: -21
new weight for 1 is: -164081604
new weight for 2 is: 164081732
new weight for 0 is: -21
new weight for 1 is: -164081796
new weight for 2 is: 164081924
new weight for 0 is: -21
new weight for 1 is: -164081796
new weight for 2 is: 164081924
new weight for 0 is: -21
new weight for 1 is: -164081988
new weight for 2 is: 164082116
new weight for 0 is: -21
new weight for 1 is: -164081988
new weight for 2 is: 164082116
new weight for 0 is: -21
new weight for 1 is: -164082180
new weight for 2 is: 164082308
new weight for 0 is: -21
new weight for 1 is: -164082180
new weight for 2 is: 164082308
new weight for 0 is: -21
new weight for 1 is: -164082372
new weight for 2 is: 164082500
new weight for 0 is: -21
new weight for 1 is: -164082372
new weight for 2 is: 164082500
new weight for 0 is: -21
new weight for 1 is: -164082564
new weight for 2 is: 164082692
new weight for 0 is: -21
new weight for 1 is: -164082564
new weight for 2 is: 164082692
new weight for 0 is: -21
new weight for 1 is: -164082628
new weight for 2 is: 164082756
new weight for 0 is: -21
new weight for 1 is: -164082628
new weight for 2 is: 164082756
new weight for 0 is: -21
new weight for 1 is: -164082820
new weight for 2 is: 164082948
new weight for 0 is: -21
new weight for 1 is: -164082820
new weight for 2 is: 164082948
new weight for 0 is: -21
new weight for 1 is: -164083012
new weight for 2 is: 164083140
new weight for 0 is: -21
new weight for 1 is: -164083012
new weight for 2 is: 164083140
new weight for 0 is: -21
new weight for 1 is: -164083204
new weight for 2 is: 164083332
new weight for 0 is: -21
new weight for 1 is: -164083204
new weight for 2 is: 164083332
new weight for 0 is: -21
new weight for 1 is: -164083396
new weight for 2 is: 164083524
new weight for 0 is: -21
new weight for 1 is: -164083396
new weight for 2 is: 164083524
new weight for 0 is: -21
new weight for 1 is: -164083588
new weight for 2 is: 164083716
new weight for 0 is: -21
new weight for 1 is: -164083588
new weight for 2 is: 164083716
new weight for 0 is: -21
new weight for 1 is: -164083780
new weight for 2 is: 164083908
new weight for 0 is: -21
new weight for 1 is: -164083780
new weight for 2 is: 164083908
new weight for 0 is: -21
new weight for 1 is: -164083972
new weight for 2 is: 164084100
new weight for 0 is: -21
new weight for 1 is: -164083972
new weight for 2 is: 164084100
new weight for 0 is: -21
new weight for 1 is: -164084164
new weight for 2 is: 164084292
new weight for 0 is: -21
new weight for 1 is: -164084164
new weight for 2 is: 164084292
new weight for 0 is: -21
new weight for 1 is: -164084356
new weight for 2 is: 164084484
new weight for 0 is: -21
new weight for 1 is: -164084356
new weight for 2 is: 164084484
new weight for 0 is: -21
new weight for 1 is: -164084548
new weight for 2 is: 164084676
new weight for 0 is: -21
new weight for 1 is: -164084548
new weight for 2 is: 164084676
new weight for 0 is: -21
new weight for 1 is: -164084740
new weight for 2 is: 164084868
new weight for 0 is: -21
new weight for 1 is: -164084740
new weight for 2 is: 164084868
new weight for 0 is: -21
new weight for 1 is: -164084932
new weight for 2 is: 164085060
new weight for 0 is: -21
new weight for 1 is: -164084932
new weight for 2 is: 164085060
new weight for 0 is: -21
new weight for 1 is: -164085124
new weight for 2 is: 164085252
new weight for 0 is: -21
new weight for 1 is: -164085124
new weight for 2 is: 164085252
new weight for 0 is: -21
new weight for 1 is: -164085316
new weight for 2 is: 164085444
new weight for 0 is: -21
new weight for 1 is: -164085316
new weight for 2 is: 164085444
new weight for 0 is: -21
new weight for 1 is: -164085508
new weight for 2 is: 164085636
new weight for 0 is: -21
new weight for 1 is: -164085508
new weight for 2 is: 164085636
new weight for 0 is: -21
new weight for 1 is: -164085700
new weight for 2 is: 164085828
new weight for 0 is: -21
new weight for 1 is: -164085700
new weight for 2 is: 164085828
new weight for 0 is: -21
new weight for 1 is: -164085892
new weight for 2 is: 164086020
new weight for 0 is: -21
new weight for 1 is: -164085892
new weight for 2 is: 164086020
new weight for 0 is: -21
new weight for 1 is: -164086084
new weight for 2 is: 164086212
new weight for 0 is: -21
new weight for 1 is: -164086084
new weight for 2 is: 164086212
new weight for 0 is: -21
new weight for 1 is: -164086276
new weight for 2 is: 164086404
new weight for 0 is: -21
new weight for 1 is: -164086276
new weight for 2 is: 164086404
new weight for 0 is: -21
new weight for 1 is: -164086468
new weight for 2 is: 164086596
new weight for 0 is: -21
new weight for 1 is: -164086468
new weight for 2 is: 164086596
new weight for 0 is: -21
new weight for 1 is: -164086660
new weight for 2 is: 164086788
new weight for 0 is: -21
new weight for 1 is: -164086660
new weight for 2 is: 164086788
new weight for 0 is: -21
new weight for 1 is: -164086724
new weight for 2 is: 164086852
new weight for 0 is: -21
new weight for 1 is: -164086724
new weight for 2 is: 164086852
new weight for 0 is: -21
new weight for 1 is: -164086916
new weight for 2 is: 164087044
new weight for 0 is: -21
new weight for 1 is: -164086916
new weight for 2 is: 164087044
new weight for 0 is: -21
new weight for 1 is: -164087108
new weight for 2 is: 164087236
new weight for 0 is: -21
new weight for 1 is: -164087108
new weight for 2 is: 164087236
new weight for 0 is: -21
new weight for 1 is: -164087300
new weight for 2 is: 164087428
new weight for 0 is: -21
new weight for 1 is: -164087300
new weight for 2 is: 164087428
new weight for 0 is: -21
new weight for 1 is: -164087492
new weight for 2 is: 164087620
new weight for 0 is: -21
new weight for 1 is: -164087492
new weight for 2 is: 164087620
new weight for 0 is: -21
new weight for 1 is: -164087684
new weight for 2 is: 164087812
new weight for 0 is: -21
new weight for 1 is: -164087684
new weight for 2 is: 164087812
new weight for 0 is: -21
new weight for 1 is: -164087876
new weight for 2 is: 164088004
new weight for 0 is: -21
new weight for 1 is: -164087876
new weight for 2 is: 164088004
new weight for 0 is: -21
new weight for 1 is: -164088068
new weight for 2 is: 164088196
new weight for 0 is: -21
new weight for 1 is: -164088068
new weight for 2 is: 164088196
new weight for 0 is: -21
new weight for 1 is: -164088260
new weight for 2 is: 164088388
new weight for 0 is: -21
new weight for 1 is: -164088260
new weight for 2 is: 164088388
new weight for 0 is: -21
new weight for 1 is: -164088452
new weight for 2 is: 164088580
new weight for 0 is: -21
new weight for 1 is: -164088452
new weight for 2 is: 164088580
new weight for 0 is: -21
new weight for 1 is: -164088644
new weight for 2 is: 164088772
new weight for 0 is: -21
new weight for 1 is: -164088644
new weight for 2 is: 164088772
new weight for 0 is: -21
new weight for 1 is: -164088836
new weight for 2 is: 164088964
new weight for 0 is: -21
new weight for 1 is: -164088836
new weight for 2 is: 164088964
new weight for 0 is: -21
new weight for 1 is: -164089028
new weight for 2 is: 164089156
new weight for 0 is: -21
new weight for 1 is: -164089028
new weight for 2 is: 164089156
new weight for 0 is: -21
new weight for 1 is: -164089220
new weight for 2 is: 164089348
new weight for 0 is: -21
new weight for 1 is: -164089220
new weight for 2 is: 164089348
new weight for 0 is: -21
new weight for 1 is: -164089412
new weight for 2 is: 164089540
new weight for 0 is: -21
new weight for 1 is: -164089412
new weight for 2 is: 164089540
new weight for 0 is: -21
new weight for 1 is: -164089604
new weight for 2 is: 164089732
new weight for 0 is: -21
new weight for 1 is: -164089604
new weight for 2 is: 164089732
new weight for 0 is: -21
new weight for 1 is: -164089796
new weight for 2 is: 164089924
new weight for 0 is: -21
new weight for 1 is: -164089796
new weight for 2 is: 164089924
new weight for 0 is: -21
new weight for 1 is: -164089988
new weight for 2 is: 164090116
new weight for 0 is: -21
new weight for 1 is: -164089988
new weight for 2 is: 164090116
new weight for 0 is: -21
new weight for 1 is: -164090180
new weight for 2 is: 164090308
new weight for 0 is: -21
new weight for 1 is: -164090180
new weight for 2 is: 164090308
new weight for 0 is: -21
new weight for 1 is: -164090372
new weight for 2 is: 164090500
new weight for 0 is: -21
new weight for 1 is: -164090372
new weight for 2 is: 164090500
new weight for 0 is: -21
new weight for 1 is: -164090564
new weight for 2 is: 164090692
new weight for 0 is: -21
new weight for 1 is: -164090564
new weight for 2 is: 164090692
new weight for 0 is: -21
new weight for 1 is: -164090756
new weight for 2 is: 164090884
new weight for 0 is: -21
new weight for 1 is: -164090756
new weight for 2 is: 164090884
new weight for 0 is: -21
new weight for 1 is: -164090820
new weight for 2 is: 164090948
new weight for 0 is: -21
new weight for 1 is: -164090820
new weight for 2 is: 164090948
new weight for 0 is: -21
new weight for 1 is: -164091012
new weight for 2 is: 164091140
new weight for 0 is: -21
new weight for 1 is: -164091012
new weight for 2 is: 164091140
new weight for 0 is: -21
new weight for 1 is: -164091204
new weight for 2 is: 164091332
new weight for 0 is: -21
new weight for 1 is: -164091204
new weight for 2 is: 164091332
new weight for 0 is: -21
new weight for 1 is: -164091396
new weight for 2 is: 164091524
new weight for 0 is: -21
new weight for 1 is: -164091396
new weight for 2 is: 164091524
new weight for 0 is: -21
new weight for 1 is: -164091588
new weight for 2 is: 164091716
new weight for 0 is: -21
new weight for 1 is: -164091588
new weight for 2 is: 164091716
new weight for 0 is: -21
new weight for 1 is: -164091780
new weight for 2 is: 164091908
new weight for 0 is: -21
new weight for 1 is: -164091780
new weight for 2 is: 164091908
new weight for 0 is: -21
new weight for 1 is: -164091972
new weight for 2 is: 164092100
new weight for 0 is: -21
new weight for 1 is: -164091972
new weight for 2 is: 164092100
new weight for 0 is: -21
new weight for 1 is: -164092164
new weight for 2 is: 164092292
new weight for 0 is: -21
new weight for 1 is: -164092164
new weight for 2 is: 164092292
new weight for 0 is: -21
new weight for 1 is: -164092356
new weight for 2 is: 164092484
new weight for 0 is: -21
new weight for 1 is: -164092356
new weight for 2 is: 164092484
new weight for 0 is: -21
new weight for 1 is: -164092548
new weight for 2 is: 164092676
new weight for 0 is: -21
new weight for 1 is: -164092548
new weight for 2 is: 164092676
new weight for 0 is: -21
new weight for 1 is: -164092740
new weight for 2 is: 164092868
new weight for 0 is: -21
new weight for 1 is: -164092740
new weight for 2 is: 164092868
new weight for 0 is: -21
new weight for 1 is: -164092932
new weight for 2 is: 164093060
new weight for 0 is: -21
new weight for 1 is: -164092932
new weight for 2 is: 164093060
new weight for 0 is: -21
new weight for 1 is: -164093124
new weight for 2 is: 164093252
new weight for 0 is: -21
new weight for 1 is: -164093124
new weight for 2 is: 164093252
new weight for 0 is: -21
new weight for 1 is: -164093316
new weight for 2 is: 164093444
new weight for 0 is: -21
new weight for 1 is: -164093316
new weight for 2 is: 164093444
new weight for 0 is: -21
new weight for 1 is: -164093508
new weight for 2 is: 164093636
new weight for 0 is: -21
new weight for 1 is: -164093508
new weight for 2 is: 164093636
new weight for 0 is: -21
new weight for 1 is: -164093700
new weight for 2 is: 164093828
new weight for 0 is: -21
new weight for 1 is: -164093700
new weight for 2 is: 164093828
new weight for 0 is: -21
new weight for 1 is: -164093892
new weight for 2 is: 164094020
new weight for 0 is: -21
new weight for 1 is: -164093892
new weight for 2 is: 164094020
new weight for 0 is: -21
new weight for 1 is: -164094084
new weight for 2 is: 164094212
new weight for 0 is: -21
new weight for 1 is: -164094084
new weight for 2 is: 164094212
new weight for 0 is: -21
new weight for 1 is: -164094276
new weight for 2 is: 164094404
new weight for 0 is: -21
new weight for 1 is: -164094276
new weight for 2 is: 164094404
new weight for 0 is: -21
new weight for 1 is: -164094468
new weight for 2 is: 164094596
new weight for 0 is: -21
new weight for 1 is: -164094468
new weight for 2 is: 164094596
new weight for 0 is: -21
new weight for 1 is: -164094660
new weight for 2 is: 164094788
new weight for 0 is: -21
new weight for 1 is: -164094660
new weight for 2 is: 164094788
new weight for 0 is: -21
new weight for 1 is: -161787375
new weight for 2 is: 161787483
new weight for 0 is: -21
new weight for 1 is: -161787375
new weight for 2 is: 161787483
new weight for 0 is: -21
new weight for 1 is: 3867828
new weight for 2 is: -3867708
new weight for 0 is: -21
new weight for 1 is: 3867868
new weight for 2 is: -3867748
new weight for 0 is: -21
new weight for 1 is: 3867868
new weight for 2 is: -3867748
new weight for 0 is: -21
new weight for 1 is: 3867868
new weight for 2 is: -3867748
new weight for 0 is: -21
new weight for 1 is: 3867868
new weight for 2 is: -3867748
new weight for 0 is: -21
new weight for 1 is: 3867868
new weight for 2 is: -3867748
new weight for 0 is: -21
new weight for 1 is: -8924713
new weight for 2 is: 8924801
new weight for 0 is: -21
new weight for 1 is: 4194332
new weight for 2 is: -4194204
new weight for 0 is: -21
new weight for 1 is: 4194372
new weight for 2 is: -4194244
new weight for 0 is: -21
new weight for 1 is: 4194372
new weight for 2 is: -4194244
new weight for 0 is: -21
new weight for 1 is: 4194372
new weight for 2 is: -4194244
new weight for 0 is: -21
new weight for 1 is: 4194372
new weight for 2 is: -4194244
new weight for 0 is: -21
new weight for 1 is: 4194372
new weight for 2 is: -4194244
new weight for 0 is: -21
new weight for 1 is: 4194372
new weight for 2 is: -4194244
new weight for 0 is: -21
new weight for 1 is: -8976267
new weight for 2 is: 8976339
new weight for 0 is: -21
new weight for 1 is: -8976307
new weight for 2 is: 8976379
new weight for 0 is: -21
new weight for 1 is: 4194281
new weight for 2 is: -4194153
new weight for 0 is: -21
new weight for 1 is: 4194321
new weight for 2 is: -4194193
new weight for 0 is: -21
new weight for 1 is: -8982325
new weight for 2 is: 8982439
new weight for 0 is: -21
new weight for 1 is: -8982365
new weight for 2 is: 8982479
new weight for 0 is: -21
new weight for 1 is: 4194332
new weight for 2 is: -4194204
new weight for 0 is: -21
new weight for 1 is: 4194372
new weight for 2 is: -4194244
new weight for 0 is: -21
new weight for 1 is: -8971381
new weight for 2 is: 8971447
new weight for 0 is: -21
new weight for 1 is: -8971421
new weight for 2 is: 8971487
new weight for 0 is: -21
new weight for 1 is: 4050252
new weight for 2 is: -4050124
new weight for 0 is: -21
new weight for 1 is: 4050292
new weight for 2 is: -4050164
new weight for 0 is: -21
new weight for 1 is: -158306252
new weight for 2 is: 158306380
new weight for 0 is: -21
new weight for 1 is: -158306292
new weight for 2 is: 158306420
new weight for 0 is: -21
new weight for 1 is: -161778139
new weight for 2 is: 161778211
new weight for 0 is: -21
new weight for 1 is: -161778139
new weight for 2 is: 161778211
new weight for 0 is: -21
new weight for 1 is: -161778139
new weight for 2 is: 161778211
new weight for 0 is: -21
new weight for 1 is: -161778139
new weight for 2 is: 161778211
new weight for 0 is: -21
new weight for 1 is: -161955351
new weight for 2 is: 161955439
new weight for 0 is: -21
new weight for 1 is: -161955351
new weight for 2 is: 161955439
new weight for 0 is: -21
new weight for 1 is: -161955783
new weight for 2 is: 161955887
new weight for 0 is: -21
new weight for 1 is: -161955783
new weight for 2 is: 161955887
new weight for 0 is: -21
new weight for 1 is: -161955783
new weight for 2 is: 161955887
new weight for 0 is: -21
new weight for 1 is: 4050124
new weight for 2 is: -4049996
new weight for 0 is: -21
new weight for 1 is: 4050164
new weight for 2 is: -4050036
new weight for 0 is: -21
new weight for 1 is: -143156836
new weight for 2 is: 143156956
new weight for 0 is: -21
new weight for 1 is: -161956215
new weight for 2 is: 161956335
new weight for 0 is: -21
new weight for 1 is: -161956215
new weight for 2 is: 161956335
new weight for 0 is: -21
new weight for 1 is: -161956215
new weight for 2 is: 161956335
new weight for 0 is: -21
new weight for 1 is: -161956215
new weight for 2 is: 161956335
new weight for 0 is: -21
new weight for 1 is: -161956599
new weight for 2 is: 161956719
new weight for 0 is: -21
new weight for 1 is: -161956599
new weight for 2 is: 161956719
new weight for 0 is: -21
new weight for 1 is: -161956599
new weight for 2 is: 161956719
new weight for 0 is: -21
new weight for 1 is: -161956599
new weight for 2 is: 161956719
new weight for 0 is: -21
new weight for 1 is: -161956599
new weight for 2 is: 161956719
new weight for 0 is: -21
new weight for 1 is: -161956791
new weight for 2 is: 161956911
new weight for 0 is: -21
new weight for 1 is: -161956791
new weight for 2 is: 161956911
new weight for 0 is: -21
new weight for 1 is: -161956983
new weight for 2 is: 161957103
new weight for 0 is: -21
new weight for 1 is: -161956983
new weight for 2 is: 161957103
new weight for 0 is: -21
new weight for 1 is: -161957127
new weight for 2 is: 161957231
new weight for 0 is: -21
new weight for 1 is: -161957127
new weight for 2 is: 161957231
new weight for 0 is: -21
new weight for 1 is: -161957319
new weight for 2 is: 161957423
new weight for 0 is: -21
new weight for 1 is: -161957319
new weight for 2 is: 161957423
new weight for 0 is: -21
new weight for 1 is: -161957319
new weight for 2 is: 161957423
new weight for 0 is: -21
new weight for 1 is: -161957319
new weight for 2 is: 161957423
new weight for 0 is: -21
new weight for 1 is: -161957511
new weight for 2 is: 161957615
new weight for 0 is: -21
new weight for 1 is: -161957511
new weight for 2 is: 161957615
new weight for 0 is: -21
new weight for 1 is: -161957895
new weight for 2 is: 161957999
new weight for 0 is: -21
new weight for 1 is: -161957895
new weight for 2 is: 161957999
new weight for 0 is: -21
new weight for 1 is: -161958087
new weight for 2 is: 161958191
new weight for 0 is: -21
new weight for 1 is: -161958087
new weight for 2 is: 161958191
new weight for 0 is: -21
new weight for 1 is: 4049932
new weight for 2 is: -4049804
new weight for 0 is: -21
new weight for 1 is: 4049972
new weight for 2 is: -4049844
new weight for 0 is: -21
new weight for 1 is: -143128916
new weight for 2 is: 143128988
new weight for 0 is: -21
new weight for 1 is: -143128956
new weight for 2 is: 143129028
new weight for 0 is: -21
new weight for 1 is: 4049228
new weight for 2 is: -4049100
new weight for 0 is: -21
new weight for 1 is: -10248616
new weight for 2 is: 10248744
new weight for 0 is: -21
new weight for 1 is: -10248656
new weight for 2 is: 10248784
new weight for 0 is: -21
new weight for 1 is: -10248656
new weight for 2 is: 10248784
new weight for 0 is: -21
new weight for 1 is: -10248656
new weight for 2 is: 10248784
Exiting @ tick 73354774000 because a thread reached the max instruction count
