Running SPEC test: x264

/home/victorfu/cpu2017/benchspec/CPU/525.x264_r
/home/victorfu/finalproject/gem5/build/X86/gem6.opt --outdir="/home/victorfu/output/bench_spec/fastforward-p3/x264" /home/victorfu/finalproject/gem5/configs/example/se.py --cmd=x264_r_base.victor_jun10-m64 --standard-switch=1 --warmup-insts=22000000 --caches  --l2cache --l1i_size=16kB  --l1d_size=64kB --l2_size=256kB --cpu-type=DerivO3CPU  --mem-type=DDR3_1600_8x8  --cpu-clock=1GHz --maxinsts=100000000 --options="--pass 2 --stats x264_stats.log --bitrate 1000 --dumpyuv 200 --frames 1000 -o BuckBunny_New.264 BuckBunny.yuv 1280x720" --l2-hwp-type=TaggedPrefetcher --mlu_pf_type=perceptron

gem5 Simulator System.  http://gem5.org
gem5 is copyrighted software; use the --copyright option for details.

gem5 compiled Jun 14 2019 14:23:51
gem5 started Jun 14 2019 19:50:59
gem5 executing on tetracosa.cs.ucla.edu, pid 444375
command line: /home/victorfu/finalproject/gem5/build/X86/gem6.opt --outdir=/home/victorfu/output/bench_spec/fastforward-p3/x264 /home/victorfu/finalproject/gem5/configs/example/se.py --cmd=x264_r_base.victor_jun10-m64 --standard-switch=1 --warmup-insts=22000000 --caches --l2cache --l1i_size=16kB --l1d_size=64kB --l2_size=256kB --cpu-type=DerivO3CPU --mem-type=DDR3_1600_8x8 --cpu-clock=1GHz --maxinsts=100000000 '--options=--pass 2 --stats x264_stats.log --bitrate 1000 --dumpyuv 200 --frames 1000 -o BuckBunny_New.264 BuckBunny.yuv 1280x720' --l2-hwp-type=TaggedPrefetcher --mlu_pf_type=perceptron

info: Standard input is not a terminal, disabling listeners.
Warning: l2-hwp-type is set ( TaggedPrefetcher ), but the current l2 has a default Hardware Prefetcher of type <class 'm5.params.NullSimObject'> , using the specified by the flag option.
MLU-Prefetch Perceptron Enabled.
Global frequency set at 1000000000000 ticks per second
warn: DRAM device capacity (8192 Mbytes) does not match the address range assigned (512 Mbytes)
warn: Sockets disabled, not accepting gdb connections
Switch at instruction count:1
info: Entering event queue @ 0.  Starting simulation...
accept
accept
accept
accept
Switched CPUS @ tick 120000
switching cpus
info: Entering event queue @ 120000.  Starting simulation...
accept
accept
accept
accept
warn: ClockedObject: Already in the requested power state, request ignored
Switch at instruction count:22000000
info: Entering event queue @ 8066000.  Starting simulation...
accept
accept
accept
accept
accept
accept
accept
accept
accept
accept
accept
accept
accept
accept
accept
accept
accept
accept
accept
accept
accept
accept
accept
accept
accept
accept
accept
accept
accept
accept
accept
accept
accept
accept
accept
accept
accept
accept
accept
accept
accept
accept
accept
accept
accept
accept
accept
accept
accept
accept
accept
accept
accept
accept
accept
accept
accept
accept
accept
accept
accept
accept
accept
accept
accept
accept
accept
accept
accept
accept
accept
accept
accept
accept
accept
accept
accept
accept
accept
accept
accept
accept
accept
accept
accept
accept
accept
accept
accept
accept
accept
accept
accept
accept
accept
accept
accept
accept
info: Increasing stack size by one page.
accept
accept
accept
accept
accept
accept
accept
accept
accept
accept
accept
accept
accept
accept
accept
accept
accept
accept
accept
accept
accept
accept
accept
accept
accept
accept
accept
accept
accept
accept
accept
accept
accept
accept
accept
accept
accept
accept
accept
accept
accept
accept
accept
accept
accept
accept
accept
accept
accept
accept
accept
accept
accept
accept
accept
accept
accept
accept
accept
accept
accept
accept
accept
accept
accept
accept
accept
accept
accept
accept
accept
accept
accept
accept
accept
accept
accept
accept
accept
accept
accept
accept
accept
accept
accept
accept
accept
accept
accept
accept
accept
accept
accept
accept
accept
accept
accept
accept
accept
accept
accept
accept
accept
accept
accept
accept
accept
accept
accept
accept
accept
accept
accept
accept
accept
accept
accept
accept
accept
accept
accept
accept
accept
accept
accept
accept
accept
accept
accept
accept
accept
accept
accept
accept
accept
accept
accept
accept
accept
accept
accept
accept
accept
accept
accept
accept
accept
accept
accept
accept
accept
accept
accept
accept
weight of 0 is -0.495252
weight of 1 is -0.043687
weight of 2 is -0.533333
weight of 3 is -1.000000
not used!
weight of 0 is -0.990498
weight of 1 is -0.043697
weight of 2 is -1.777778
weight of 3 is -2.000000
not used!
deny
deny
deny
deny
weight of 0 is -1.485701
weight of 1 is -0.043976
weight of 2 is -2.133333
weight of 3 is -3.000000
not used!
deny
deny
deny
deny
deny
deny
deny
deny
deny
deny
weight of 0 is -0.990992
weight of 1 is -0.036321
weight of 2 is -1.422222
weight of 3 is -2.000000
used!
weight of 0 is -0.496283
weight of 1 is -0.028665
weight of 2 is -0.711111
weight of 3 is -1.000000
used!
weight of 0 is -0.991495
weight of 1 is -0.069651
weight of 2 is -1.777778
weight of 3 is -2.000000
not used!
deny
deny
weight of 0 is -0.496786
weight of 1 is -0.039136
weight of 2 is -1.777778
weight of 3 is -1.000000
used!
weight of 0 is -0.002077
weight of 1 is -0.008621
weight of 2 is -1.777778
weight of 3 is 0.000000
used!
accept
accept
accept
accept
weight of 0 is -0.497290
weight of 1 is -0.009579
weight of 2 is -1.777778
weight of 3 is -1.000000
not used!
deny
deny
weight of 0 is -0.992492
weight of 1 is -0.010481
weight of 2 is -1.777778
weight of 3 is -2.000000
not used!
deny
deny
deny
deny
deny
deny
deny
deny
weight of 0 is -1.487202
weight of 1 is -0.011796
weight of 2 is -1.777778
weight of 3 is -3.000000
not used!
weight of 0 is -1.981895
weight of 1 is -0.013116
weight of 2 is -2.844444
weight of 3 is -4.000000
not used!
deny
deny
weight of 0 is -1.487186
weight of 1 is 0.001247
weight of 2 is -2.133333
weight of 3 is -3.000000
used!
weight of 0 is -0.992476
weight of 1 is 0.015610
weight of 2 is -1.422222
weight of 3 is -2.000000
used!
weight of 0 is -1.487676
weight of 1 is -0.025605
weight of 2 is -2.133333
weight of 3 is -3.000000
not used!
deny
deny
weight of 0 is -0.992967
weight of 1 is -0.025339
weight of 2 is -1.777778
weight of 3 is -2.000000
used!
weight of 0 is -0.498257
weight of 1 is -0.025074
weight of 2 is -1.422222
weight of 3 is -1.000000
used!
deny
deny
deny
deny
weight of 0 is -0.003548
weight of 1 is -0.005535
weight of 2 is -0.355556
weight of 3 is 0.000000
used!
weight of 0 is 0.491162
weight of 1 is 0.014004
weight of 2 is 0.711111
weight of 3 is 1.000000
used!
weight of 0 is -0.003529
weight of 1 is 0.013742
weight of 2 is 0.622222
weight of 3 is 0.000000
not used!
accept
accept
weight of 0 is 0.491181
weight of 1 is 0.013746
weight of 2 is 0.622222
weight of 3 is 1.000000
used!
weight of 0 is 0.985890
weight of 1 is 0.013751
weight of 2 is 0.622222
weight of 3 is 2.000000
used!
weight of 0 is 0.490792
weight of 1 is -0.019426
weight of 2 is 0.622222
weight of 3 is 1.000000
not used!
weight of 0 is -0.003917
weight of 1 is -0.050953
weight of 2 is -0.622222
weight of 3 is 0.000000
not used!
accept
accept
accept
accept
weight of 0 is -0.498606
weight of 1 is -0.052716
weight of 2 is -0.711111
weight of 3 is -1.000000
not used!
weight of 0 is -0.993295
weight of 1 is -0.052744
weight of 2 is -1.511111
weight of 3 is -2.000000
not used!
deny
deny
weight of 0 is -1.487985
weight of 1 is -0.052864
weight of 2 is -2.844444
weight of 3 is -3.000000
not used!
deny
deny
weight of 0 is -1.982678
weight of 1 is -0.053203
weight of 2 is -2.844444
weight of 3 is -4.000000
not used!
deny
deny
deny
deny
deny
deny
deny
deny
weight of 0 is -1.487969
weight of 1 is -0.053100
weight of 2 is -2.844444
weight of 3 is -3.000000
used!
weight of 0 is -0.993260
weight of 1 is -0.052997
weight of 2 is -2.844444
weight of 3 is -2.000000
used!
weight of 0 is -1.488502
weight of 1 is -0.097684
weight of 2 is -3.733333
weight of 3 is -3.000000
not used!
deny
deny
weight of 0 is -0.993793
weight of 1 is -0.097666
weight of 2 is -3.733333
weight of 3 is -2.000000
used!
weight of 0 is -0.499083
weight of 1 is -0.097647
weight of 2 is -3.733333
weight of 3 is -1.000000
used!
weight of 0 is -0.993793
weight of 1 is -0.129912
weight of 2 is -4.088889
weight of 3 is -2.000000
not used!
deny
deny
weight of 0 is -1.488342
weight of 1 is -0.142903
weight of 2 is -5.155556
weight of 3 is -3.000000
not used!
deny
deny
weight of 0 is -0.993633
weight of 1 is -0.142701
weight of 2 is -4.800000
weight of 3 is -2.000000
used!
weight of 0 is -0.498924
weight of 1 is -0.142499
weight of 2 is -4.444444
weight of 3 is -1.000000
used!
deny
deny
weight of 0 is -0.004215
weight of 1 is -0.142487
weight of 2 is -3.733333
weight of 3 is 0.000000
used!
weight of 0 is 0.490495
weight of 1 is -0.142476
weight of 2 is -3.022222
weight of 3 is 1.000000
used!
weight of 0 is -0.004718
weight of 1 is -0.185322
weight of 2 is -3.555556
weight of 3 is 0.000000
not used!
accept
accept
weight of 0 is -0.499427
weight of 1 is -0.226305
weight of 2 is -3.555556
weight of 3 is -1.000000
not used!
deny
deny
deny
deny
weight of 0 is -0.004718
weight of 1 is -0.216786
weight of 2 is -2.488889
weight of 3 is 0.000000
used!
weight of 0 is 0.489991
weight of 1 is -0.207268
weight of 2 is -1.422222
weight of 3 is 1.000000
used!
weight of 0 is -0.005218
weight of 1 is -0.247992
weight of 2 is -2.311111
weight of 3 is 0.000000
not used!
deny
deny
weight of 0 is -0.500133
weight of 1 is -0.264771
weight of 2 is -3.555556
weight of 3 is -1.000000
not used!
deny
deny
deny
deny
deny
deny
deny
deny
deny
deny
weight of 0 is -0.005424
weight of 1 is -0.249359
weight of 2 is -3.555556
weight of 3 is 0.000000
used!
weight of 0 is 0.489285
weight of 1 is -0.233946
weight of 2 is -3.555556
weight of 3 is 1.000000
used!
deny
deny
weight of 0 is -0.005493
weight of 1 is -0.239585
weight of 2 is -3.733333
weight of 3 is 0.000000
not used!
accept
accept
weight of 0 is 0.489216
weight of 1 is -0.235618
weight of 2 is -3.733333
weight of 3 is 1.000000
used!
weight of 0 is 0.983926
weight of 1 is -0.231652
weight of 2 is -3.733333
weight of 3 is 2.000000
used!
deny
deny
weight of 0 is 0.489148
weight of 1 is -0.242867
weight of 2 is -3.822222
weight of 3 is 1.000000
not used!
weight of 0 is -0.005562
weight of 1 is -0.248365
weight of 2 is -4.355556
weight of 3 is 0.000000
not used!
accept
accept
weight of 0 is 0.489148
weight of 1 is -0.230654
weight of 2 is -3.288889
weight of 3 is 1.000000
used!
weight of 0 is 0.983857
weight of 1 is -0.212942
weight of 2 is -2.222222
weight of 3 is 2.000000
used!
weight of 0 is 0.489079
weight of 1 is -0.218429
weight of 2 is -2.844444
weight of 3 is 1.000000
not used!
deny
deny
accept
accept
weight of 0 is -0.005837
weight of 1 is -0.229712
weight of 2 is -2.844444
weight of 3 is 0.000000
not used!
deny
deny
warn: ignoring syscall access(...)
deny
deny
weight of 0 is -0.500715
weight of 1 is -0.243457
weight of 2 is -3.733333
weight of 3 is -1.000000
not used!
deny
deny
deny
deny
weight of 0 is -0.995634
weight of 1 is -0.260533
weight of 2 is -4.977778
weight of 3 is -2.000000
not used!
deny
deny
deny
deny
weight of 0 is -1.490509
weight of 1 is -0.264135
weight of 2 is -5.155556
weight of 3 is -3.000000
not used!
deny
deny
deny
deny
weight of 0 is -1.985218
weight of 1 is -0.277483
weight of 2 is -6.044444
weight of 3 is -4.000000
not used!
deny
deny
deny
deny
weight of 0 is -1.490509
weight of 1 is -0.265906
weight of 2 is -5.688889
weight of 3 is -3.000000
used!
weight of 0 is -0.995800
weight of 1 is -0.254328
weight of 2 is -5.333333
weight of 3 is -2.000000
used!
deny
deny
weight of 0 is -0.501090
weight of 1 is -0.254314
weight of 2 is -5.333333
weight of 3 is -1.000000
used!
weight of 0 is -0.006381
weight of 1 is -0.254300
weight of 2 is -5.333333
weight of 3 is 0.000000
used!
accept
accept
deny
deny
weight of 0 is 0.488328
weight of 1 is -0.254281
weight of 2 is -5.333333
weight of 3 is 1.000000
used!
weight of 0 is 0.983038
weight of 1 is -0.254262
weight of 2 is -5.333333
weight of 3 is 2.000000
used!
weight of 0 is 0.487770
weight of 1 is -0.299763
weight of 2 is -5.866667
weight of 3 is 1.000000
not used!
accept
accept
weight of 0 is 0.982479
weight of 1 is -0.299744
weight of 2 is -5.866667
weight of 3 is 2.000000
used!
weight of 0 is 1.477188
weight of 1 is -0.299725
weight of 2 is -5.866667
weight of 3 is 3.000000
used!
weight of 0 is 0.981921
weight of 1 is -0.299765
weight of 2 is -6.222222
weight of 3 is 2.000000
not used!
weight of 0 is 0.486709
weight of 1 is -0.299793
weight of 2 is -6.222222
weight of 3 is 1.000000
not used!
deny
deny
weight of 0 is -0.008000
weight of 1 is -0.340637
weight of 2 is -6.222222
weight of 3 is 0.000000
not used!
accept
accept
weight of 0 is -0.503267
weight of 1 is -0.386025
weight of 2 is -7.466667
weight of 3 is -1.000000
not used!
deny
deny
weight of 0 is -0.997977
weight of 1 is -0.406045
weight of 2 is -7.822222
weight of 3 is -2.000000
not used!
deny
deny
deny
deny
weight of 0 is -1.492686
weight of 1 is -0.407454
weight of 2 is -8.177778
weight of 3 is -3.000000
not used!
deny
deny
weight of 0 is -1.987395
weight of 1 is -0.434188
weight of 2 is -8.533333
weight of 3 is -4.000000
not used!
weight of 0 is -2.482105
weight of 1 is -0.434273
weight of 2 is -9.600000
weight of 3 is -5.000000
not used!
deny
deny
deny
deny
deny
deny
deny
deny
weight of 0 is -1.987395
weight of 1 is -0.411864
weight of 2 is -8.533333
weight of 3 is -4.000000
used!
weight of 0 is -1.492686
weight of 1 is -0.389456
weight of 2 is -7.466667
weight of 3 is -3.000000
used!
weight of 0 is -1.987818
weight of 1 is -0.423907
weight of 2 is -8.177778
weight of 3 is -4.000000
not used!
deny
deny
weight of 0 is -1.493109
weight of 1 is -0.423902
weight of 2 is -8.177778
weight of 3 is -3.000000
used!
weight of 0 is -0.998400
weight of 1 is -0.423897
weight of 2 is -8.177778
weight of 3 is -2.000000
used!
weight of 0 is -1.493109
weight of 1 is -0.440562
weight of 2 is -8.888889
weight of 3 is -3.000000
not used!
deny
deny
weight of 0 is -0.998400
weight of 1 is -0.440543
weight of 2 is -8.888889
weight of 3 is -2.000000
used!
weight of 0 is -0.503690
weight of 1 is -0.440524
weight of 2 is -8.888889
weight of 3 is -1.000000
used!
weight of 0 is -0.998445
weight of 1 is -0.444214
weight of 2 is -10.177778
weight of 3 is -2.000000
not used!
deny
deny
weight of 0 is -1.493154
weight of 1 is -0.447838
weight of 2 is -10.177778
weight of 3 is -3.000000
not used!
deny
deny
deny
deny
deny
deny
deny
deny
weight of 0 is -1.987863
weight of 1 is -0.449684
weight of 2 is -11.244444
weight of 3 is -4.000000
not used!
deny
deny
weight of 0 is -2.482572
weight of 1 is -0.449745
weight of 2 is -11.955556
weight of 3 is -5.000000
not used!
deny
deny
deny
deny
weight of 0 is -1.987863
weight of 1 is -0.447106
weight of 2 is -11.244444
weight of 3 is -4.000000
used!
weight of 0 is -1.493154
weight of 1 is -0.444466
weight of 2 is -10.533333
weight of 3 is -3.000000
used!
deny
deny
deny
deny
deny
deny
deny
deny
deny
deny
deny
deny
deny
deny
weight of 0 is -0.998445
weight of 1 is -0.439088
weight of 2 is -9.466667
weight of 3 is -2.000000
used!
weight of 0 is -0.503735
weight of 1 is -0.433710
weight of 2 is -8.400000
weight of 3 is -1.000000
used!
deny
deny
deny
deny
deny
deny
weight of 0 is -0.998444
weight of 1 is -0.464038
weight of 2 is -8.577778
weight of 3 is -2.000000
not used!
deny
deny
deny
deny
weight of 0 is -0.503735
weight of 1 is -0.436709
weight of 2 is -7.511111
weight of 3 is -1.000000
used!
weight of 0 is -0.009026
weight of 1 is -0.409381
weight of 2 is -6.444444
weight of 3 is 0.000000
used!
deny
deny
accept
accept
weight of 0 is -0.504109
weight of 1 is -0.409437
weight of 2 is -6.622222
weight of 3 is -1.000000
not used!
deny
deny
weight of 0 is -0.009399
weight of 1 is -0.409432
weight of 2 is -6.622222
weight of 3 is 0.000000
used!
weight of 0 is 0.485310
weight of 1 is -0.409428
weight of 2 is -6.622222
weight of 3 is 1.000000
used!
weight of 0 is -0.009771
weight of 1 is -0.409559
weight of 2 is -6.800000
weight of 3 is 0.000000
not used!
weight of 0 is -0.504481
weight of 1 is -0.439828
weight of 2 is -6.800000
weight of 3 is -1.000000
not used!
deny
deny
weight of 0 is -0.009313
weight of 1 is -0.402509
weight of 2 is -6.266667
weight of 3 is 0.000000
used!
weight of 0 is 0.485855
weight of 1 is -0.365191
weight of 2 is -5.733333
weight of 3 is 1.000000
used!
weight of 0 is -0.009207
weight of 1 is -0.393898
weight of 2 is -5.733333
weight of 3 is 0.000000
not used!
accept
accept
weight of 0 is 0.485502
weight of 1 is -0.356566
weight of 2 is -5.733333
weight of 3 is 1.000000
used!
weight of 0 is 0.980212
weight of 1 is -0.319235
weight of 2 is -5.733333
weight of 3 is 2.000000
used!
deny
deny
weight of 0 is 0.485502
weight of 1 is -0.347866
weight of 2 is -5.733333
weight of 3 is 1.000000
not used!
weight of 0 is -0.009709
weight of 1 is -0.377997
weight of 2 is -6.800000
weight of 3 is 0.000000
not used!
accept
accept
weight of 0 is -0.504419
weight of 1 is -0.408343
weight of 2 is -7.511111
weight of 3 is -1.000000
not used!
deny
deny
weight of 0 is -0.999637
weight of 1 is -0.437882
weight of 2 is -8.666667
weight of 3 is -2.000000
not used!
deny
deny
deny
deny
weight of 0 is -1.494347
weight of 1 is -0.477933
weight of 2 is -8.666667
weight of 3 is -3.000000
not used!
deny
deny
weight of 0 is -0.999637
weight of 1 is -0.477689
weight of 2 is -8.666667
weight of 3 is -2.000000
used!
weight of 0 is -0.504928
weight of 1 is -0.477445
weight of 2 is -8.666667
weight of 3 is -1.000000
used!
deny
deny
deny
deny
deny
deny
deny
deny
weight of 0 is -0.999637
weight of 1 is -0.477473
weight of 2 is -9.022222
weight of 3 is -2.000000
not used!
deny
deny
weight of 0 is -0.504928
weight of 1 is -0.456431
weight of 2 is -9.022222
weight of 3 is -1.000000
used!
weight of 0 is -0.010219
weight of 1 is -0.435389
weight of 2 is -9.022222
weight of 3 is 0.000000
used!
accept
accept
weight of 0 is 0.484491
weight of 1 is -0.435216
weight of 2 is -8.666667
weight of 3 is 1.000000
used!
weight of 0 is 0.979200
weight of 1 is -0.435042
weight of 2 is -8.311111
weight of 3 is 2.000000
used!
accept
accept
deny
deny
weight of 0 is 0.487078
weight of 1 is -0.435096
weight of 2 is -8.488889
weight of 3 is 1.000000
not used!
accept
accept
deny
deny
deny
deny
deny
deny
deny
deny
deny
deny
weight of 0 is -0.007631
weight of 1 is -0.463340
weight of 2 is -9.200000
weight of 3 is 0.000000
not used!
accept
accept
weight of 0 is -0.501966
weight of 1 is -0.493800
weight of 2 is -9.466667
weight of 3 is -1.000000
not used!
deny
deny
deny
deny
deny
deny
deny
deny
weight of 0 is -0.006921
weight of 1 is -0.493744
weight of 2 is -8.577778
weight of 3 is 0.000000
used!
weight of 0 is 0.488124
weight of 1 is -0.493687
weight of 2 is -7.688889
weight of 3 is 1.000000
used!
accept
accept
deny
deny
accept
accept
weight of 0 is -0.006585
weight of 1 is -0.533648
weight of 2 is -8.222222
weight of 3 is 0.000000
not used!
accept
accept
weight of 0 is -0.501294
weight of 1 is -0.533960
weight of 2 is -8.222222
weight of 3 is -1.000000
not used!
deny
deny
deny
deny
weight of 0 is -0.995835
weight of 1 is -0.534017
weight of 2 is -8.400000
weight of 3 is -2.000000
not used!
weight of 0 is -1.491043
weight of 1 is -0.588392
weight of 2 is -8.933333
weight of 3 is -3.000000
not used!
deny
deny
deny
deny
weight of 0 is -1.983037
weight of 1 is -0.799129
weight of 2 is -9.466667
weight of 3 is -4.000000
not used!
deny
deny
weight of 0 is -2.477747
weight of 1 is -1.009915
weight of 2 is -9.466667
weight of 3 is -5.000000
not used!
deny
deny
weight of 0 is -2.972604
weight of 1 is -1.010046
weight of 2 is -10.355556
weight of 3 is -6.000000
not used!
deny
deny
weight of 0 is -3.467689
weight of 1 is -1.010102
weight of 2 is -11.333333
weight of 3 is -7.000000
not used!
deny
deny
weight of 0 is -3.962775
weight of 1 is -1.010126
weight of 2 is -11.866667
weight of 3 is -8.000000
not used!
deny
deny
deny
deny
deny
deny
weight of 0 is -4.458009
weight of 1 is -1.011770
weight of 2 is -13.111111
weight of 3 is -9.000000
not used!
deny
deny
weight of 0 is -3.963300
weight of 1 is -0.977004
weight of 2 is -13.111111
weight of 3 is -8.000000
used!
weight of 0 is -3.468591
weight of 1 is -0.942237
weight of 2 is -13.111111
weight of 3 is -7.000000
used!
deny
deny
deny
deny
deny
deny
deny
deny
deny
deny
deny
deny
deny
deny
deny
deny
deny
deny
deny
deny
deny
deny
deny
deny
deny
deny
weight of 0 is -2.973551
weight of 1 is -0.935709
weight of 2 is -12.666667
weight of 3 is -6.000000
used!
weight of 0 is -2.478512
weight of 1 is -0.929180
weight of 2 is -12.222222
weight of 3 is -5.000000
used!
deny
deny
weight of 0 is -1.983382
weight of 1 is -0.929179
weight of 2 is -12.222222
weight of 3 is -4.000000
used!
weight of 0 is -1.488253
weight of 1 is -0.929178
weight of 2 is -12.222222
weight of 3 is -3.000000
used!
deny
deny
weight of 0 is -1.983463
weight of 1 is -0.969921
weight of 2 is -13.111111
weight of 3 is -4.000000
not used!
deny
deny
weight of 0 is -1.488333
weight of 1 is -0.962657
weight of 2 is -11.755556
weight of 3 is -3.000000
used!
weight of 0 is -0.993202
weight of 1 is -0.955393
weight of 2 is -10.400000
weight of 3 is -2.000000
used!
weight of 0 is -1.488413
weight of 1 is -0.955454
weight of 2 is -11.644444
weight of 3 is -3.000000
not used!
deny
deny
weight of 0 is -0.993703
weight of 1 is -0.955320
weight of 2 is -10.933333
weight of 3 is -2.000000
used!
weight of 0 is -0.498994
weight of 1 is -0.955186
weight of 2 is -10.222222
weight of 3 is -1.000000
used!
deny
deny
deny
deny
deny
deny
weight of 0 is -0.004285
weight of 1 is -0.954947
weight of 2 is -9.155556
weight of 3 is 0.000000
used!
weight of 0 is 0.490425
weight of 1 is -0.954707
weight of 2 is -8.088889
weight of 3 is 1.000000
used!
weight of 0 is -0.004285
weight of 1 is -0.995448
weight of 2 is -8.622222
weight of 3 is 0.000000
not used!
accept
accept
weight of 0 is 0.490425
weight of 1 is -0.995443
weight of 2 is -8.622222
weight of 3 is 1.000000
used!
weight of 0 is 0.985134
weight of 1 is -0.995438
weight of 2 is -8.622222
weight of 3 is 2.000000
used!
weight of 0 is 0.489926
weight of 1 is -1.036035
weight of 2 is -8.977778
weight of 3 is 1.000000
not used!
weight of 0 is -0.004783
weight of 1 is -1.076578
weight of 2 is -9.333333
weight of 3 is 0.000000
not used!
accept
accept
weight of 0 is -0.499493
weight of 1 is -1.102270
weight of 2 is -10.400000
weight of 3 is -1.000000
not used!
weight of 0 is -0.994202
weight of 1 is -1.103848
weight of 2 is -10.755556
weight of 3 is -2.000000
not used!
deny
deny
deny
deny
deny
deny
deny
deny
weight of 0 is -0.499493
weight of 1 is -1.061328
weight of 2 is -9.688889
weight of 3 is -1.000000
used!
weight of 0 is -0.004783
weight of 1 is -1.018807
weight of 2 is -8.622222
weight of 3 is 0.000000
used!
accept
accept
weight of 0 is 0.489926
weight of 1 is -1.018803
weight of 2 is -8.622222
weight of 3 is 1.000000
used!
weight of 0 is 0.984636
weight of 1 is -1.018798
weight of 2 is -8.622222
weight of 3 is 2.000000
used!
deny
deny
deny
deny
accept
accept
accept
accept
deny
deny
weight of 0 is 0.489926
weight of 1 is -1.018849
weight of 2 is -8.800000
weight of 3 is 1.000000
not used!
deny
deny
accept
accept
accept
accept
deny
deny
accept
accept
accept
accept
deny
deny
accept
accept
weight of 0 is -0.004783
weight of 1 is -1.039854
weight of 2 is -8.800000
weight of 3 is 0.000000
not used!
accept
accept
deny
deny
weight of 0 is -0.499966
weight of 1 is -1.057387
weight of 2 is -9.155556
weight of 3 is -1.000000
not used!
deny
deny
deny
deny
deny
deny
weight of 0 is -0.005257
weight of 1 is -1.054278
weight of 2 is -8.088889
weight of 3 is 0.000000
used!
weight of 0 is 0.489453
weight of 1 is -1.051168
weight of 2 is -7.022222
weight of 3 is 1.000000
used!
accept
accept
weight of 0 is 0.984162
weight of 1 is -1.051164
weight of 2 is -7.022222
weight of 3 is 2.000000
used!
weight of 0 is 1.478871
weight of 1 is -1.051159
weight of 2 is -7.022222
weight of 3 is 3.000000
used!
weight of 0 is 0.984162
weight of 1 is -1.051255
weight of 2 is -7.200000
weight of 3 is 2.000000
not used!
accept
accept
deny
deny
weight of 0 is 0.489453
weight of 1 is -1.051279
weight of 2 is -7.200000
weight of 3 is 1.000000
not used!
accept
accept
deny
deny
deny
deny
weight of 0 is -0.005256
weight of 1 is -1.051281
weight of 2 is -7.200000
weight of 3 is 0.000000
not used!
deny
deny
deny
deny
deny
deny
weight of 0 is 0.489889
weight of 1 is -1.051172
weight of 2 is -6.222222
weight of 3 is 1.000000
used!
weight of 0 is 0.985034
weight of 1 is -1.051063
weight of 2 is -5.244444
weight of 3 is 2.000000
used!
deny
deny
weight of 0 is 1.480179
weight of 1 is -1.050865
weight of 2 is -4.533333
weight of 3 is 3.000000
used!
weight of 0 is 1.975324
weight of 1 is -1.050668
weight of 2 is -3.822222
weight of 3 is 4.000000
used!
weight of 0 is 1.480614
weight of 1 is -1.051570
weight of 2 is -3.822222
weight of 3 is 3.000000
not used!
accept
accept
deny
deny
accept
accept
weight of 0 is 0.985905
weight of 1 is -1.051575
weight of 2 is -3.822222
weight of 3 is 2.000000
not used!
accept
accept
accept
accept
accept
accept
accept
accept
deny
deny
deny
deny
weight of 0 is 1.481049
weight of 1 is -1.051521
weight of 2 is -3.022222
weight of 3 is 3.000000
used!
weight of 0 is 1.976193
weight of 1 is -1.051467
weight of 2 is -2.222222
weight of 3 is 4.000000
used!
accept
accept
accept
accept
accept
accept
accept
accept
accept
accept
accept
accept
warn: ignoring syscall mprotect(...)
accept
accept
accept
accept
accept
accept
weight of 0 is 1.481484
weight of 1 is -1.051469
weight of 2 is -2.222222
weight of 3 is 3.000000
not used!
accept
accept
accept
accept
accept
accept
weight of 0 is 0.986775
weight of 1 is -1.072513
weight of 2 is -2.222222
weight of 3 is 2.000000
not used!
accept
accept
accept
accept
accept
accept
accept
accept
accept
accept
weight of 0 is 0.492065
weight of 1 is -1.072621
weight of 2 is -2.222222
weight of 3 is 1.000000
not used!
accept
accept
accept
accept
deny
deny
weight of 0 is 0.987210
weight of 1 is -1.072596
weight of 2 is -1.866667
weight of 3 is 2.000000
used!
weight of 0 is 1.482355
weight of 1 is -1.072572
weight of 2 is -1.511111
weight of 3 is 3.000000
used!
weight of 0 is 0.987646
weight of 1 is -1.096051
weight of 2 is -1.511111
weight of 3 is 2.000000
not used!
accept
accept
accept
accept
weight of 0 is 0.492937
weight of 1 is -1.111774
weight of 2 is -1.511111
weight of 3 is 1.000000
not used!
weight of 0 is -0.001990
weight of 1 is -1.129514
weight of 2 is -1.511111
weight of 3 is 0.000000
not used!
weight of 0 is -0.496700
weight of 1 is -1.147249
weight of 2 is -1.511111
weight of 3 is -1.000000
not used!
deny
deny
deny
deny
deny
deny
weight of 0 is -0.001991
weight of 1 is -1.138759
weight of 2 is -0.266667
weight of 3 is 0.000000
used!
weight of 0 is 0.492719
weight of 1 is -1.130270
weight of 2 is 0.977778
weight of 3 is 1.000000
used!
accept
accept
accept
accept
accept
accept
accept
accept
accept
accept
accept
accept
accept
accept
accept
accept
accept
accept
accept
accept
accept
accept
accept
accept
accept
accept
accept
accept
accept
accept
weight of 0 is -0.002020
weight of 1 is -1.157878
weight of 2 is 0.977778
weight of 3 is 0.000000
not used!
weight of 0 is -0.496924
weight of 1 is -1.173690
weight of 2 is 0.977778
weight of 3 is -1.000000
not used!
weight of 0 is -0.991633
weight of 1 is -1.189490
weight of 2 is 0.977778
weight of 3 is -2.000000
not used!
weight of 0 is -1.486342
weight of 1 is -1.204773
weight of 2 is 0.977778
weight of 3 is -3.000000
not used!
weight of 0 is -1.981052
weight of 1 is -1.230399
weight of 2 is 0.977778
weight of 3 is -4.000000
not used!
weight of 0 is -2.475761
weight of 1 is -1.230418
weight of 2 is 0.977778
weight of 3 is -5.000000
not used!
deny
deny
deny
deny
deny
deny
deny
deny
deny
deny
weight of 0 is -1.980612
weight of 1 is -1.230309
weight of 2 is 2.133333
weight of 3 is -4.000000
used!
weight of 0 is -1.485462
weight of 1 is -1.230199
weight of 2 is 3.288889
weight of 3 is -3.000000
used!
accept
accept
weight of 0 is -0.990313
weight of 1 is -1.215248
weight of 2 is 4.177778
weight of 3 is -2.000000
used!
weight of 0 is -0.495163
weight of 1 is -1.200296
weight of 2 is 5.066667
weight of 3 is -1.000000
used!
deny
deny
deny
deny
deny
deny
deny
deny
weight of 0 is -0.000015
weight of 1 is -1.200242
weight of 2 is 6.044444
weight of 3 is 0.000000
used!
weight of 0 is 0.495134
weight of 1 is -1.200188
weight of 2 is 7.022222
weight of 3 is 1.000000
used!
accept
accept
accept
accept
weight of 0 is 0.990283
weight of 1 is -1.200163
weight of 2 is 7.555556
weight of 3 is 2.000000
used!
weight of 0 is 1.485432
weight of 1 is -1.200139
weight of 2 is 8.088889
weight of 3 is 3.000000
used!
accept
accept
accept
accept
weight of 0 is 0.990515
weight of 1 is -1.200237
weight of 2 is 8.088889
weight of 3 is 2.000000
not used!
accept
accept
weight of 0 is 0.495806
weight of 1 is -1.206491
weight of 2 is 8.088889
weight of 3 is 1.000000
not used!
warn: ignoring syscall mprotect(...)
weight of 0 is 0.001097
weight of 1 is -1.206547
weight of 2 is 8.088889
weight of 3 is 0.000000
not used!
accept
accept
weight of 0 is -0.494100
weight of 1 is -1.246266
weight of 2 is 7.911111
weight of 3 is -1.000000
not used!
deny
deny
deny
deny
deny
deny
weight of 0 is 0.026903
weight of 1 is -1.246219
weight of 2 is 7.911111
weight of 3 is 0.000000
used!
weight of 0 is 0.547906
weight of 1 is -1.246172
weight of 2 is 7.911111
weight of 3 is 1.000000
used!
accept
accept
weight of 0 is 1.068909
weight of 1 is -1.246153
weight of 2 is 7.911111
weight of 3 is 2.000000
used!
weight of 0 is 1.589912
weight of 1 is -1.246134
weight of 2 is 7.911111
weight of 3 is 3.000000
used!
accept
accept
accept
accept
weight of 0 is 1.094717
weight of 1 is -1.285715
weight of 2 is 7.733333
weight of 3 is 2.000000
not used!
weight of 0 is 0.599805
weight of 1 is -1.285719
weight of 2 is 6.488889
weight of 3 is 1.000000
not used!
accept
accept
accept
accept
accept
accept
weight of 0 is 0.105096
weight of 1 is -1.308464
weight of 2 is 6.133333
weight of 3 is 0.000000
not used!
accept
accept
weight of 0 is -0.390120
weight of 1 is -1.326605
weight of 2 is 4.888889
weight of 3 is -1.000000
not used!
deny
deny
weight of 0 is -0.884829
weight of 1 is -1.367446
weight of 2 is 4.888889
weight of 3 is -2.000000
not used!
deny
deny
deny
deny
weight of 0 is -0.363821
weight of 1 is -1.367390
weight of 2 is 4.888889
weight of 3 is -1.000000
used!
weight of 0 is 0.157188
weight of 1 is -1.367334
weight of 2 is 4.888889
weight of 3 is 0.000000
used!
accept
accept
weight of 0 is -0.349346
weight of 1 is -2.354193
weight of 2 is 4.444444
weight of 3 is -1.000000
not used!
deny
deny
accept
accept
accept
accept
deny
deny
deny
deny
deny
deny
weight of 0 is 0.171929
weight of 1 is -0.233295
weight of 2 is 4.444444
weight of 3 is 0.000000
used!
weight of 0 is 0.693204
weight of 1 is 1.887604
weight of 2 is 4.444444
weight of 3 is 1.000000
used!
accept
accept
weight of 0 is 1.214480
weight of 1 is 1.887623
weight of 2 is 4.444444
weight of 3 is 2.000000
used!
weight of 0 is 1.735755
weight of 1 is 1.887641
weight of 2 is 4.444444
weight of 3 is 3.000000
used!
accept
accept
weight of 0 is 1.228924
weight of 1 is 1.887585
weight of 2 is 4.444444
weight of 3 is 2.000000
not used!
accept
accept
weight of 0 is 0.733710
weight of 1 is 0.941993
weight of 2 is 3.733333
weight of 3 is 1.000000
not used!
weight of 0 is 0.239001
weight of 1 is 0.941662
weight of 2 is 2.844444
weight of 3 is 0.000000
not used!
accept
accept
accept
accept
accept
accept
weight of 0 is -0.256375
weight of 1 is 0.923053
weight of 2 is 2.488889
weight of 3 is -1.000000
not used!
weight of 0 is -0.751084
weight of 1 is 0.863361
weight of 2 is 2.488889
weight of 3 is -2.000000
not used!
accept
accept
deny
deny
weight of 0 is -1.245794
weight of 1 is 0.862969
weight of 2 is 2.311111
weight of 3 is -3.000000
not used!
deny
deny
deny
deny
deny
deny
weight of 0 is -1.737576
weight of 1 is 0.639745
weight of 2 is 1.644444
weight of 3 is -4.000000
not used!
deny
deny
deny
deny
weight of 0 is -1.216296
weight of 1 is 2.770974
weight of 2 is 1.644444
weight of 3 is -3.000000
used!
weight of 0 is -0.695016
weight of 1 is 4.902203
weight of 2 is 1.644444
weight of 3 is -2.000000
used!
accept
accept
deny
deny
deny
deny
deny
deny
weight of 0 is -0.200307
weight of 1 is 4.918365
weight of 2 is 2.000000
weight of 3 is -1.000000
used!
weight of 0 is 0.294403
weight of 1 is 4.934527
weight of 2 is 2.355556
weight of 3 is 0.000000
used!
weight of 0 is -0.200821
weight of 1 is 4.654333
weight of 2 is 1.666667
weight of 3 is -1.000000
not used!
deny
deny
deny
deny
deny
deny
weight of 0 is 0.293888
weight of 1 is 4.670413
weight of 2 is 1.844444
weight of 3 is 0.000000
used!
weight of 0 is 0.788598
weight of 1 is 4.686492
weight of 2 is 2.022222
weight of 3 is 1.000000
used!
accept
accept
weight of 0 is 1.283307
weight of 1 is 4.686509
weight of 2 is 2.022222
weight of 3 is 2.000000
used!
weight of 0 is 1.778016
weight of 1 is 4.686525
weight of 2 is 2.022222
weight of 3 is 3.000000
used!
accept
accept
accept
accept
accept
accept
weight of 0 is 1.282957
weight of 1 is 4.669482
weight of 2 is 1.577778
weight of 3 is 2.000000
not used!
accept
accept
weight of 0 is 0.787791
weight of 1 is 4.660888
weight of 2 is 0.555556
weight of 3 is 1.000000
not used!
weight of 0 is 0.292739
weight of 1 is 4.651640
weight of 2 is -0.066667
weight of 3 is 0.000000
not used!
weight of 0 is -0.202411
weight of 1 is 4.643736
weight of 2 is -0.244444
weight of 3 is -1.000000
not used!
weight of 0 is -0.697466
weight of 1 is 4.636157
weight of 2 is -1.222222
weight of 3 is -2.000000
not used!
weight of 0 is -1.192624
weight of 1 is 4.627888
weight of 2 is -2.377778
weight of 3 is -3.000000
not used!
deny
deny
weight of 0 is -1.687786
weight of 1 is 4.619520
weight of 2 is -3.400000
weight of 3 is -4.000000
not used!
weight of 0 is -2.182844
weight of 1 is 4.611236
weight of 2 is -4.555556
weight of 3 is -5.000000
not used!
deny
deny
weight of 0 is -2.678008
weight of 1 is 4.602776
weight of 2 is -4.777778
weight of 3 is -6.000000
not used!
deny
deny
weight of 0 is -3.173171
weight of 1 is 4.602673
weight of 2 is -5.755556
weight of 3 is -7.000000
not used!
deny
deny
deny
deny
weight of 0 is -3.668333
weight of 1 is 4.602650
weight of 2 is -6.422222
weight of 3 is -8.000000
not used!
deny
deny
deny
deny
deny
deny
deny
deny
weight of 0 is -3.173624
weight of 1 is 4.603000
weight of 2 is -5.711111
weight of 3 is -7.000000
used!
weight of 0 is -2.678914
weight of 1 is 4.603350
weight of 2 is -5.000000
weight of 3 is -6.000000
used!
deny
deny
deny
deny
weight of 0 is -2.184205
weight of 1 is 4.603359
weight of 2 is -5.000000
weight of 3 is -5.000000
used!
weight of 0 is -1.689496
weight of 1 is 4.603369
weight of 2 is -5.000000
weight of 3 is -4.000000
used!
deny
deny
weight of 0 is -1.194786
weight of 1 is 4.603387
weight of 2 is -5.000000
weight of 3 is -3.000000
used!
weight of 0 is -0.700077
weight of 1 is 4.603406
weight of 2 is -5.000000
weight of 3 is -2.000000
used!
deny
deny
weight of 0 is -0.205368
weight of 1 is 4.830916
weight of 2 is -5.000000
weight of 3 is -1.000000
used!
weight of 0 is 0.289342
weight of 1 is 5.058425
weight of 2 is -5.000000
weight of 3 is 0.000000
used!
deny
deny
accept
accept
deny
deny
deny
deny
accept
accept
deny
deny
accept
accept
accept
accept
weight of 0 is 0.784051
weight of 1 is 5.058444
weight of 2 is -5.000000
weight of 3 is 1.000000
used!
weight of 0 is 1.278760
weight of 1 is 5.058462
weight of 2 is -5.000000
weight of 3 is 2.000000
used!
accept
accept
accept
accept
accept
accept
accept
accept
accept
accept
accept
accept
accept
accept
accept
accept
accept
accept
accept
accept
accept
accept
accept
accept
accept
accept
deny
deny
accept
accept
weight of 0 is 0.783611
weight of 1 is 5.058453
weight of 2 is -6.244444
weight of 3 is 1.000000
not used!
deny
deny
accept
accept
deny
deny
deny
deny
accept
accept
accept
accept
accept
accept
weight of 0 is 1.278321
weight of 1 is 5.058472
weight of 2 is -6.244444
weight of 3 is 2.000000
used!
weight of 0 is 1.773030
weight of 1 is 5.058491
weight of 2 is -6.244444
weight of 3 is 3.000000
used!
accept
accept
weight of 0 is 2.294258
weight of 1 is 5.058501
weight of 2 is -5.000000
weight of 3 is 4.000000
used!
weight of 0 is 2.815485
weight of 1 is 5.058512
weight of 2 is -3.755556
weight of 3 is 5.000000
used!
weight of 0 is 2.320776
weight of 1 is 5.016689
weight of 2 is -3.755556
weight of 3 is 4.000000
not used!
accept
accept
weight of 0 is 1.825553
weight of 1 is 4.974871
weight of 2 is -5.000000
weight of 3 is 3.000000
not used!
accept
accept
weight of 0 is 1.330358
weight of 1 is 4.972621
weight of 2 is -5.177778
weight of 3 is 2.000000
not used!
weight of 0 is 0.835649
weight of 1 is 4.947321
weight of 2 is -5.888889
weight of 3 is 1.000000
not used!
accept
accept
deny
deny
weight of 0 is 0.340738
weight of 1 is 4.922027
weight of 2 is -7.133333
weight of 3 is 0.000000
not used!
accept
accept
accept
accept
accept
accept
accept
accept
accept
accept
accept
accept
accept
accept
accept
accept
accept
accept
accept
accept
accept
accept
accept
accept
accept
accept
accept
accept
weight of 0 is -0.154478
weight of 1 is 4.921909
weight of 2 is -8.377778
weight of 3 is -1.000000
not used!
deny
deny
deny
deny
deny
deny
weight of 0 is 0.366758
weight of 1 is 4.921966
weight of 2 is -8.377778
weight of 3 is 0.000000
used!
weight of 0 is 0.887994
weight of 1 is 4.922022
weight of 2 is -8.377778
weight of 3 is 1.000000
used!
weight of 0 is 0.366718
weight of 1 is 4.922003
weight of 2 is -8.377778
weight of 3 is 0.000000
not used!
accept
accept
weight of 0 is 0.887954
weight of 1 is 4.922022
weight of 2 is -8.377778
weight of 3 is 1.000000
used!
weight of 0 is 1.409190
weight of 1 is 4.922041
weight of 2 is -8.377778
weight of 3 is 2.000000
used!
weight of 0 is 0.913972
weight of 1 is 2.801025
weight of 2 is -9.266667
weight of 3 is 1.000000
not used!
accept
accept
accept
accept
weight of 0 is 0.407191
weight of 1 is 1.854310
weight of 2 is -10.511111
weight of 3 is 0.000000
not used!
deny
deny
accept
accept
deny
deny
accept
accept
deny
deny
weight of 0 is -0.087518
weight of 1 is 0.874995
weight of 2 is -11.044444
weight of 3 is -1.000000
not used!
deny
deny
deny
deny
weight of 0 is 0.407191
weight of 1 is 0.875009
weight of 2 is -11.044444
weight of 3 is 0.000000
used!
weight of 0 is 0.901900
weight of 1 is 0.875023
weight of 2 is -11.044444
weight of 3 is 1.000000
used!
deny
deny
accept
accept
weight of 0 is 1.396610
weight of 1 is 0.875911
weight of 2 is -10.688889
weight of 3 is 2.000000
used!
weight of 0 is 1.891319
weight of 1 is 0.876799
weight of 2 is -10.333333
weight of 3 is 3.000000
used!
accept
accept
deny
deny
accept
accept
weight of 0 is 1.396130
weight of 1 is 0.845847
weight of 2 is -11.577778
weight of 3 is 2.000000
not used!
accept
accept
accept
accept
deny
deny
accept
accept
deny
deny
accept
accept
accept
accept
deny
deny
accept
accept
weight of 0 is 0.901421
weight of 1 is -1.316872
weight of 2 is -11.577778
weight of 3 is 1.000000
not used!
accept
accept
accept
accept
accept
accept
accept
accept
weight of 0 is 0.406712
weight of 1 is -1.317471
weight of 2 is -12.822222
weight of 3 is 0.000000
not used!
weight of 0 is -0.087998
weight of 1 is -1.317729
weight of 2 is -13.000000
weight of 3 is -1.000000
not used!
deny
deny
deny
deny
deny
deny
deny
deny
weight of 0 is 0.419129
weight of 1 is -1.317673
weight of 2 is -13.000000
weight of 3 is 0.000000
used!
weight of 0 is 0.926255
weight of 1 is -1.317617
weight of 2 is -13.000000
weight of 3 is 1.000000
used!
accept
accept
weight of 0 is 1.433382
weight of 1 is -1.317595
weight of 2 is -12.822222
weight of 3 is 2.000000
used!
weight of 0 is 1.940508
weight of 1 is -1.317574
weight of 2 is -12.644444
weight of 3 is 3.000000
used!
deny
deny
accept
accept
weight of 0 is 2.461658
weight of 1 is -0.176118
weight of 2 is -12.644444
weight of 3 is 4.000000
used!
weight of 0 is 2.982808
weight of 1 is 0.965339
weight of 2 is -12.644444
weight of 3 is 5.000000
used!
accept
accept
accept
accept
accept
accept
accept
accept
accept
accept
accept
accept
accept
accept
weight of 0 is 2.488099
weight of 1 is 0.965325
weight of 2 is -12.644444
weight of 3 is 4.000000
not used!
accept
accept
accept
accept
accept
accept
weight of 0 is 1.993389
weight of 1 is 0.738026
weight of 2 is -12.644444
weight of 3 is 3.000000
not used!
weight of 0 is 1.498680
weight of 1 is 0.737707
weight of 2 is -12.644444
weight of 3 is 2.000000
not used!
accept
accept
weight of 0 is 1.006766
weight of 1 is 0.510156
weight of 2 is -12.733333
weight of 3 is 1.000000
not used!
accept
accept
accept
accept
accept
accept
accept
accept
weight of 0 is 0.514983
weight of 1 is -0.721314
weight of 2 is -12.733333
weight of 3 is 0.000000
not used!
accept
accept
accept
accept
accept
accept
accept
accept
accept
accept
weight of 0 is 0.020274
weight of 1 is -2.879539
weight of 2 is -12.733333
weight of 3 is -1.000000
not used!
deny
deny
deny
deny
deny
deny
weight of 0 is 0.527412
weight of 1 is -1.738587
weight of 2 is -12.733333
weight of 3 is 0.000000
used!
weight of 0 is 1.034549
weight of 1 is -0.597636
weight of 2 is -12.733333
weight of 3 is 1.000000
used!
weight of 0 is 0.540078
weight of 1 is -0.617588
weight of 2 is -12.733333
weight of 3 is 0.000000
not used!
accept
accept
weight of 0 is 1.047216
weight of 1 is -0.617567
weight of 2 is -12.555556
weight of 3 is 1.000000
used!
weight of 0 is 1.554354
weight of 1 is -0.617546
weight of 2 is -12.377778
weight of 3 is 2.000000
used!
accept
accept
accept
accept
accept
accept
weight of 0 is 1.033129
weight of 1 is -0.617578
weight of 2 is -12.555556
weight of 3 is 1.000000
not used!
accept
accept
accept
accept
accept
accept
weight of 0 is 0.538420
weight of 1 is -2.776108
weight of 2 is -13.800000
weight of 3 is 0.000000
not used!
accept
accept
weight of 0 is 0.043711
weight of 1 is -4.934494
weight of 2 is -13.800000
weight of 3 is -1.000000
not used!
weight of 0 is -0.450999
weight of 1 is -4.953413
weight of 2 is -13.800000
weight of 3 is -2.000000
not used!
deny
deny
deny
deny
weight of 0 is -0.945708
weight of 1 is -4.970265
weight of 2 is -13.800000
weight of 3 is -3.000000
not used!
deny
deny
deny
deny
weight of 0 is -0.438566
weight of 1 is -3.829539
weight of 2 is -13.800000
weight of 3 is -2.000000
used!
weight of 0 is 0.068577
weight of 1 is -2.688813
weight of 2 is -13.800000
weight of 3 is -1.000000
used!
deny
deny
deny
deny
weight of 0 is 0.575719
weight of 1 is -2.688792
weight of 2 is -13.622222
weight of 3 is 0.000000
used!
weight of 0 is 1.082862
weight of 1 is -2.688770
weight of 2 is -13.444444
weight of 3 is 1.000000
used!
deny
deny
weight of 0 is 1.590004
weight of 1 is -2.688749
weight of 2 is -13.088889
weight of 3 is 2.000000
used!
weight of 0 is 2.097147
weight of 1 is -2.688728
weight of 2 is -12.733333
weight of 3 is 3.000000
used!
deny
deny
weight of 0 is 2.604290
weight of 1 is -1.548040
weight of 2 is -12.733333
weight of 3 is 4.000000
used!
weight of 0 is 3.111433
weight of 1 is -0.407351
weight of 2 is -12.733333
weight of 3 is 5.000000
used!
accept
accept
weight of 0 is 3.632590
weight of 1 is 0.733431
weight of 2 is -12.733333
weight of 3 is 6.000000
used!
weight of 0 is 4.153746
weight of 1 is 1.874214
weight of 2 is -12.733333
weight of 3 is 7.000000
used!
accept
accept
weight of 0 is 4.660890
weight of 1 is 1.874235
weight of 2 is -12.555556
weight of 3 is 8.000000
used!
weight of 0 is 5.168033
weight of 1 is 1.874256
weight of 2 is -12.377778
weight of 3 is 9.000000
used!
accept
accept
weight of 0 is 4.673323
weight of 1 is 1.853515
weight of 2 is -12.377778
weight of 3 is 8.000000
not used!
accept
accept
accept
accept
deny
deny
accept
accept
accept
accept
accept
accept
accept
accept
accept
accept
accept
accept
accept
accept
accept
accept
accept
accept
accept
accept
accept
accept
accept
accept
accept
accept
weight of 0 is 4.152087
weight of 1 is 1.853496
weight of 2 is -12.377778
weight of 3 is 7.000000
not used!
accept
accept
weight of 0 is 3.657378
weight of 1 is -0.326524
weight of 2 is -12.377778
weight of 3 is 6.000000
not used!
weight of 0 is 3.162669
weight of 1 is -0.329886
weight of 2 is -12.377778
weight of 3 is 5.000000
not used!
accept
accept
accept
accept
accept
accept
weight of 0 is 2.667959
weight of 1 is -0.329891
weight of 2 is -12.377778
weight of 3 is 4.000000
not used!
accept
accept
weight of 0 is 2.173250
weight of 1 is -0.329898
weight of 2 is -12.377778
weight of 3 is 3.000000
not used!
accept
accept
accept
accept
accept
accept
accept
accept
weight of 0 is 1.678541
weight of 1 is -0.330189
weight of 2 is -12.377778
weight of 3 is 2.000000
not used!
accept
accept
accept
accept
weight of 0 is 1.183832
weight of 1 is -0.330194
weight of 2 is -12.377778
weight of 3 is 1.000000
not used!
accept
accept
deny
deny
deny
deny
accept
accept
weight of 0 is 1.690989
weight of 1 is 0.809891
weight of 2 is -12.200000
weight of 3 is 2.000000
used!
weight of 0 is 2.198146
weight of 1 is 1.949976
weight of 2 is -12.022222
weight of 3 is 3.000000
used!
weight of 0 is 1.703436
weight of 1 is 1.949920
weight of 2 is -12.022222
weight of 3 is 2.000000
not used!
accept
accept
accept
accept
accept
accept
weight of 0 is 1.208727
weight of 1 is 1.949910
weight of 2 is -12.022222
weight of 3 is 1.000000
not used!
accept
accept
weight of 0 is 0.701604
weight of 1 is 0.808273
weight of 2 is -12.022222
weight of 3 is 0.000000
not used!
accept
accept
accept
accept
accept
accept
accept
accept
accept
accept
accept
accept
accept
accept
accept
accept
accept
accept
accept
accept
accept
accept
accept
accept
accept
accept
accept
accept
accept
accept
deny
deny
accept
accept
accept
accept
accept
accept
accept
accept
deny
deny
accept
accept
accept
accept
accept
accept
accept
accept
accept
accept
accept
accept
deny
deny
accept
accept
deny
deny
accept
accept
accept
accept
deny
deny
accept
accept
accept
accept
accept
accept
deny
deny
accept
accept
accept
accept
accept
accept
accept
accept
accept
accept
accept
accept
accept
accept
accept
accept
accept
accept
accept
accept
accept
accept
accept
accept
accept
accept
accept
accept
accept
accept
accept
accept
accept
accept
accept
accept
weight of 0 is 0.180446
weight of 1 is -0.332322
weight of 2 is -12.022222
weight of 3 is -1.000000
not used!
deny
deny
deny
deny
deny
deny
weight of 0 is 0.687630
weight of 1 is -0.332265
weight of 2 is -12.022222
weight of 3 is 0.000000
used!
weight of 0 is 1.194814
weight of 1 is -0.332209
weight of 2 is -12.022222
weight of 3 is 1.000000
used!
accept
accept
accept
accept
weight of 0 is 1.701998
weight of 1 is -0.332188
weight of 2 is -11.844444
weight of 3 is 2.000000
used!
weight of 0 is 2.209182
weight of 1 is -0.332167
weight of 2 is -11.666667
weight of 3 is 3.000000
used!
accept
accept
accept
accept
accept
accept
accept
accept
accept
accept
accept
accept
accept
accept
deny
deny
deny
deny
accept
accept
weight of 0 is 2.730363
weight of 1 is 0.806784
weight of 2 is -10.955556
weight of 3 is 4.000000
used!
weight of 0 is 3.251543
weight of 1 is 1.945735
weight of 2 is -10.244444
weight of 3 is 5.000000
used!
accept
accept
accept
accept
accept
accept
accept
accept
weight of 0 is 2.744391
weight of 1 is 0.805459
weight of 2 is -10.244444
weight of 3 is 4.000000
not used!
accept
accept
accept
accept
accept
accept
accept
accept
accept
accept
accept
accept
accept
accept
deny
deny
accept
accept
accept
accept
accept
accept
accept
accept
accept
accept
accept
accept
accept
accept
accept
accept
deny
deny
accept
accept
accept
accept
accept
accept
accept
accept
accept
accept
accept
accept
accept
accept
accept
accept
accept
accept
accept
accept
accept
accept
accept
accept
weight of 0 is 2.237223
weight of 1 is -0.334083
weight of 2 is -10.244444
weight of 3 is 3.000000
not used!
accept
accept
accept
accept
accept
accept
weight of 0 is 1.716055
weight of 1 is -1.473626
weight of 2 is -10.244444
weight of 3 is 2.000000
not used!
accept
accept
accept
accept
accept
accept
accept
accept
accept
accept
accept
accept
weight of 0 is 1.194886
weight of 1 is -2.613018
weight of 2 is -10.244444
weight of 3 is 1.000000
not used!
deny
deny
deny
deny
accept
accept
weight of 0 is 1.702093
weight of 1 is -1.474924
weight of 2 is -10.066667
weight of 3 is 2.000000
used!
weight of 0 is 2.209301
weight of 1 is -0.336831
weight of 2 is -9.888889
weight of 3 is 3.000000
used!
accept
accept
accept
accept
accept
accept
accept
accept
deny
deny
accept
accept
accept
accept
accept
accept
accept
accept
deny
deny
accept
accept
accept
accept
accept
accept
accept
accept
accept
accept
accept
accept
deny
deny
accept
accept
accept
accept
weight of 0 is 2.730496
weight of 1 is 0.801155
weight of 2 is -9.355556
weight of 3 is 4.000000
used!
weight of 0 is 3.251690
weight of 1 is 1.939140
weight of 2 is -8.822222
weight of 3 is 5.000000
used!
accept
accept
accept
accept
accept
accept
accept
accept
accept
accept
accept
accept
accept
accept
accept
accept
accept
accept
accept
accept
accept
accept
accept
accept
accept
accept
accept
accept
accept
accept
accept
accept
accept
accept
accept
accept
accept
accept
accept
accept
accept
accept
accept
accept
accept
accept
accept
accept
accept
accept
accept
accept
accept
accept
accept
accept
accept
accept
accept
accept
accept
accept
accept
accept
deny
deny
accept
accept
accept
accept
weight of 0 is 2.744493
weight of 1 is 1.939084
weight of 2 is -8.822222
weight of 3 is 4.000000
not used!
accept
accept
deny
deny
weight of 0 is 2.223308
weight of 1 is 1.939072
weight of 2 is -9.000000
weight of 3 is 3.000000
not used!
accept
accept
accept
accept
accept
accept
deny
deny
accept
accept
accept
accept
accept
accept
accept
accept
accept
accept
deny
deny
accept
accept
accept
accept
deny
deny
accept
accept
accept
accept
accept
accept
accept
accept
accept
accept
deny
deny
accept
accept
accept
accept
accept
accept
accept
accept
accept
accept
accept
accept
accept
accept
accept
accept
accept
accept
deny
deny
accept
accept
accept
accept
deny
deny
weight of 0 is 1.702116
weight of 1 is 0.800995
weight of 2 is -9.000000
weight of 3 is 2.000000
not used!
deny
deny
accept
accept
weight of 0 is 1.194904
weight of 1 is 0.800939
weight of 2 is -9.000000
weight of 3 is 1.000000
not used!
accept
accept
deny
deny
accept
accept
deny
deny
deny
deny
deny
deny
accept
accept
deny
deny
deny
deny
deny
deny
deny
deny
deny
deny
deny
deny
accept
accept
deny
deny
weight of 0 is 0.673708
weight of 1 is -0.337030
weight of 2 is -9.711111
weight of 3 is 0.000000
not used!
accept
accept
deny
deny
deny
deny
deny
deny
deny
deny
accept
accept
deny
deny
deny
deny
deny
deny
deny
deny
deny
deny
accept
accept
deny
deny
deny
deny
accept
accept
accept
accept
weight of 0 is 0.152500
weight of 1 is -1.475594
weight of 2 is -9.888889
weight of 3 is -1.000000
not used!
deny
deny
deny
deny
deny
deny
deny
deny
weight of 0 is -0.368715
weight of 1 is -2.614758
weight of 2 is -10.066667
weight of 3 is -2.000000
not used!
deny
deny
deny
deny
deny
deny
deny
deny
deny
deny
deny
deny
deny
deny
deny
deny
deny
deny
deny
deny
deny
deny
deny
deny
deny
deny
deny
deny
deny
deny
deny
deny
weight of 0 is -0.889932
weight of 1 is -3.753770
weight of 2 is -10.066667
weight of 3 is -3.000000
not used!
weight of 0 is -1.411150
weight of 1 is -3.753828
weight of 2 is -10.244444
weight of 3 is -4.000000
not used!
deny
deny
deny
deny
deny
deny
deny
deny
weight of 0 is -1.932369
weight of 1 is -4.892962
weight of 2 is -10.955556
weight of 3 is -5.000000
not used!
weight of 0 is -2.453589
weight of 1 is -4.893012
weight of 2 is -11.133333
weight of 3 is -6.000000
not used!
deny
deny
deny
deny
weight of 0 is -2.974810
weight of 1 is -4.893131
weight of 2 is -11.844444
weight of 3 is -7.000000
not used!
weight of 0 is -3.496032
weight of 1 is -4.893181
weight of 2 is -12.022222
weight of 3 is -8.000000
not used!
deny
deny
deny
deny
deny
deny
deny
deny
weight of 0 is -4.017256
weight of 1 is -6.032596
weight of 2 is -12.733333
weight of 3 is -9.000000
not used!
deny
deny
weight of 0 is -3.510199
weight of 1 is -6.017724
weight of 2 is -12.666667
weight of 3 is -8.000000
used!
weight of 0 is -3.003142
weight of 1 is -6.002852
weight of 2 is -12.600000
weight of 3 is -7.000000
used!
deny
deny
deny
deny
deny
deny
deny
deny
weight of 0 is -2.495917
weight of 1 is -5.966151
weight of 2 is -12.600000
weight of 3 is -6.000000
used!
weight of 0 is -1.988691
weight of 1 is -5.929450
weight of 2 is -12.600000
weight of 3 is -5.000000
used!
deny
deny
weight of 0 is -1.481580
weight of 1 is -5.920051
weight of 2 is -11.622222
weight of 3 is -4.000000
used!
weight of 0 is -0.974468
weight of 1 is -5.910651
weight of 2 is -10.644444
weight of 3 is -3.000000
used!
deny
deny
weight of 0 is -1.481327
weight of 1 is -6.899603
weight of 2 is -11.266667
weight of 3 is -4.000000
not used!
deny
deny
deny
deny
deny
deny
deny
deny
weight of 0 is -1.976036
weight of 1 is -7.888498
weight of 2 is -11.266667
weight of 3 is -5.000000
not used!
deny
deny
deny
deny
deny
deny
deny
deny
deny
deny
weight of 0 is -2.483118
weight of 1 is -8.895578
weight of 2 is -11.733333
weight of 3 is -6.000000
not used!
deny
deny
deny
deny
deny
deny
weight of 0 is -1.976058
weight of 1 is -8.879845
weight of 2 is -10.866667
weight of 3 is -5.000000
used!
weight of 0 is -1.468998
weight of 1 is -8.864112
weight of 2 is -10.000000
weight of 3 is -4.000000
used!
deny
deny
deny
deny
weight of 0 is -1.963707
weight of 1 is -9.871135
weight of 2 is -10.000000
weight of 3 is -5.000000
not used!
deny
deny
deny
deny
deny
deny
deny
deny
deny
deny
weight of 0 is -1.456647
weight of 1 is -9.871132
weight of 2 is -10.000000
weight of 3 is -4.000000
used!
weight of 0 is -0.949587
weight of 1 is -9.871128
weight of 2 is -10.000000
weight of 3 is -3.000000
used!
deny
deny
deny
deny
deny
deny
deny
deny
weight of 0 is -0.442359
weight of 1 is -9.837255
weight of 2 is -9.822222
weight of 3 is -2.000000
used!
weight of 0 is 0.064869
weight of 1 is -9.803381
weight of 2 is -9.644444
weight of 3 is -1.000000
used!
deny
deny
deny
deny
deny
deny
weight of 0 is 0.571930
weight of 1 is -9.794549
weight of 2 is -9.222222
weight of 3 is 0.000000
used!
weight of 0 is 1.078991
weight of 1 is -9.785717
weight of 2 is -8.800000
weight of 3 is 1.000000
used!
deny
deny
deny
deny
deny
deny
deny
deny
weight of 0 is 0.572184
weight of 1 is -10.714159
weight of 2 is -8.800000
weight of 3 is 0.000000
not used!
deny
deny
accept
accept
deny
deny
deny
deny
weight of 0 is 0.065359
weight of 1 is -10.715576
weight of 2 is -9.333333
weight of 3 is -1.000000
not used!
deny
deny
deny
deny
deny
deny
deny
deny
weight of 0 is 0.572584
weight of 1 is -10.681805
weight of 2 is -9.333333
weight of 3 is 0.000000
used!
weight of 0 is 1.079810
weight of 1 is -10.648033
weight of 2 is -9.333333
weight of 3 is 1.000000
used!
deny
deny
deny
deny
deny
deny
accept
accept
deny
deny
accept
accept
deny
deny
deny
deny
deny
deny
weight of 0 is 0.585101
weight of 1 is -10.648062
weight of 2 is -9.511111
weight of 3 is 0.000000
not used!
accept
accept
weight of 0 is 0.090392
weight of 1 is -10.648642
weight of 2 is -9.511111
weight of 3 is -1.000000
not used!
deny
deny
deny
deny
weight of 0 is 0.597620
weight of 1 is -10.611638
weight of 2 is -9.511111
weight of 3 is 0.000000
used!
weight of 0 is 1.104848
weight of 1 is -10.574634
weight of 2 is -9.511111
weight of 3 is 1.000000
used!
deny
deny
deny
deny
weight of 0 is 0.610138
weight of 1 is -10.575268
weight of 2 is -9.511111
weight of 3 is 0.000000
not used!
deny
deny
deny
deny
accept
accept
deny
deny
deny
deny
weight of 0 is 1.117367
weight of 1 is -10.539920
weight of 2 is -9.333333
weight of 3 is 1.000000
used!
weight of 0 is 1.624595
weight of 1 is -10.504571
weight of 2 is -9.155556
weight of 3 is 2.000000
used!
deny
deny
weight of 0 is 1.117770
weight of 1 is -11.492746
weight of 2 is -9.244444
weight of 3 is 1.000000
not used!
deny
deny
accept
accept
weight of 0 is 0.623061
weight of 1 is -11.492788
weight of 2 is -9.244444
weight of 3 is 0.000000
not used!
deny
deny
accept
accept
deny
deny
deny
deny
deny
deny
accept
accept
weight of 0 is 0.115834
weight of 1 is -12.630095
weight of 2 is -9.422222
weight of 3 is -1.000000
not used!
deny
deny
weight of 0 is -0.405361
weight of 1 is -13.767484
weight of 2 is -10.133333
weight of 3 is -2.000000
not used!
deny
deny
deny
deny
weight of 0 is -0.926558
weight of 1 is -14.904904
weight of 2 is -10.133333
weight of 3 is -3.000000
not used!
deny
deny
deny
deny
weight of 0 is -1.433670
weight of 1 is -16.051581
weight of 2 is -10.488889
weight of 3 is -4.000000
not used!
weight of 0 is -1.940610
weight of 1 is -16.065597
weight of 2 is -10.755556
weight of 3 is -5.000000
not used!
deny
deny
deny
deny
weight of 0 is -2.447656
weight of 1 is -16.065598
weight of 2 is -10.755556
weight of 3 is -6.000000
not used!
deny
deny
weight of 0 is -1.940429
weight of 1 is -15.033112
weight of 2 is -10.755556
weight of 3 is -5.000000
used!
weight of 0 is -1.433202
weight of 1 is -14.000627
weight of 2 is -10.755556
weight of 3 is -4.000000
used!
weight of 0 is -1.925227
weight of 1 is -15.224086
weight of 2 is -11.200000
weight of 3 is -5.000000
not used!
deny
deny
deny
deny
deny
deny
weight of 0 is -1.418151
weight of 1 is -15.211301
weight of 2 is -10.888889
weight of 3 is -4.000000
used!
weight of 0 is -0.911076
weight of 1 is -15.198515
weight of 2 is -10.577778
weight of 3 is -3.000000
used!
deny
deny
deny
deny
deny
deny
deny
deny
weight of 0 is -1.418036
weight of 1 is -15.211001
weight of 2 is -10.666667
weight of 3 is -4.000000
not used!
deny
deny
weight of 0 is -1.925083
weight of 1 is -15.215924
weight of 2 is -10.755556
weight of 3 is -5.000000
not used!
deny
deny
weight of 0 is -2.431893
weight of 1 is -16.144666
weight of 2 is -10.755556
weight of 3 is -6.000000
not used!
deny
deny
deny
deny
deny
deny
weight of 0 is -1.924664
weight of 1 is -15.007509
weight of 2 is -10.755556
weight of 3 is -5.000000
used!
weight of 0 is -1.417436
weight of 1 is -13.870353
weight of 2 is -10.755556
weight of 3 is -4.000000
used!
deny
deny
weight of 0 is -1.924415
weight of 1 is -13.881444
weight of 2 is -10.844444
weight of 3 is -5.000000
not used!
deny
deny
deny
deny
deny
deny
deny
deny
deny
deny
deny
deny
deny
deny
deny
deny
weight of 0 is -2.431513
weight of 1 is -13.881445
weight of 2 is -10.844444
weight of 3 is -6.000000
not used!
deny
deny
weight of 0 is -1.924284
weight of 1 is -13.846868
weight of 2 is -10.666667
weight of 3 is -5.000000
used!
weight of 0 is -1.417055
weight of 1 is -13.812291
weight of 2 is -10.488889
weight of 3 is -4.000000
used!
deny
deny
deny
deny
deny
deny
deny
deny
deny
deny
deny
deny
deny
deny
deny
deny
deny
deny
deny
deny
deny
deny
weight of 0 is -1.911623
weight of 1 is -14.808409
weight of 2 is -10.488889
weight of 3 is -5.000000
not used!
deny
deny
deny
deny
deny
deny
deny
deny
deny
deny
weight of 0 is -1.404396
weight of 1 is -14.784621
weight of 2 is -10.488889
weight of 3 is -4.000000
used!
weight of 0 is -0.897168
weight of 1 is -14.760832
weight of 2 is -10.488889
weight of 3 is -3.000000
used!
deny
deny
deny
deny
deny
deny
deny
deny
deny
deny
deny
deny
weight of 0 is -1.404219
weight of 1 is -14.762683
weight of 2 is -10.577778
weight of 3 is -4.000000
not used!
deny
deny
weight of 0 is -0.897133
weight of 1 is -14.759141
weight of 2 is -10.111111
weight of 3 is -3.000000
used!
weight of 0 is -0.390047
weight of 1 is -14.755600
weight of 2 is -9.644444
weight of 3 is -2.000000
used!
deny
deny
deny
deny
deny
deny
deny
deny
deny
deny
weight of 0 is -0.896897
weight of 1 is -14.758103
weight of 2 is -9.733333
weight of 3 is -3.000000
not used!
deny
deny
deny
deny
weight of 0 is -0.389667
weight of 1 is -14.732571
weight of 2 is -9.733333
weight of 3 is -2.000000
used!
weight of 0 is 0.117562
weight of 1 is -14.707039
weight of 2 is -9.733333
weight of 3 is -1.000000
used!
deny
deny
weight of 0 is -0.389490
weight of 1 is -14.718712
weight of 2 is -9.733333
weight of 3 is -2.000000
not used!
deny
deny
deny
deny
deny
deny
deny
deny
deny
deny
weight of 0 is 0.117739
weight of 1 is -14.685766
weight of 2 is -9.555556
weight of 3 is -1.000000
used!
weight of 0 is 0.624969
weight of 1 is -14.652820
weight of 2 is -9.377778
weight of 3 is 0.000000
used!
deny
deny
deny
deny
deny
deny
deny
deny
weight of 0 is 1.131805
weight of 1 is -14.643815
weight of 2 is -8.488889
weight of 3 is 1.000000
used!
weight of 0 is 1.638641
weight of 1 is -14.634810
weight of 2 is -7.600000
weight of 3 is 2.000000
used!
accept
accept
accept
accept
deny
deny
accept
accept
accept
accept
deny
deny
deny
deny
deny
deny
accept
accept
deny
deny
accept
accept
accept
accept
weight of 0 is 2.145869
weight of 1 is -14.610819
weight of 2 is -7.600000
weight of 3 is 3.000000
used!
weight of 0 is 2.653097
weight of 1 is -14.586828
weight of 2 is -7.600000
weight of 3 is 4.000000
used!
accept
accept
weight of 0 is 3.160191
weight of 1 is -14.572734
weight of 2 is -6.577778
weight of 3 is 5.000000
used!
weight of 0 is 3.667286
weight of 1 is -14.558641
weight of 2 is -5.555556
weight of 3 is 6.000000
used!
accept
accept
accept
accept
accept
accept
deny
deny
accept
accept
deny
deny
deny
deny
accept
accept
accept
accept
accept
accept
accept
accept
accept
accept
accept
accept
accept
accept
accept
accept
accept
accept
deny
deny
accept
accept
accept
accept
accept
accept
deny
deny
accept
accept
accept
accept
accept
accept
accept
accept
deny
deny
accept
accept
accept
accept
accept
accept
accept
accept
accept
accept
accept
accept
accept
accept
deny
deny
accept
accept
accept
accept
accept
accept
accept
accept
accept
accept
accept
accept
accept
accept
accept
accept
accept
accept
accept
accept
weight of 0 is 3.160183
weight of 1 is -14.560230
weight of 2 is -5.600000
weight of 3 is 5.000000
not used!
accept
accept
accept
accept
deny
deny
accept
accept
weight of 0 is 2.653067
weight of 1 is -14.587899
weight of 2 is -5.600000
weight of 3 is 4.000000
not used!
accept
accept
deny
deny
weight of 0 is 2.146002
weight of 1 is -14.593175
weight of 2 is -5.644444
weight of 3 is 3.000000
not used!
deny
deny
accept
accept
accept
accept
accept
accept
deny
deny
deny
deny
accept
accept
accept
accept
accept
accept
accept
accept
weight of 0 is 1.638928
weight of 1 is -14.606482
weight of 2 is -5.644444
weight of 3 is 2.000000
not used!
accept
accept
accept
accept
accept
accept
deny
deny
deny
deny
weight of 0 is 1.132115
weight of 1 is -14.617133
weight of 2 is -5.644444
weight of 3 is 1.000000
not used!
weight of 0 is 0.625164
weight of 1 is -14.625952
weight of 2 is -5.644444
weight of 3 is 0.000000
not used!
deny
deny
deny
deny
deny
deny
deny
deny
deny
deny
weight of 0 is 0.118360
weight of 1 is -14.649486
weight of 2 is -5.644444
weight of 3 is -1.000000
not used!
deny
deny
deny
deny
deny
deny
deny
deny
deny
deny
deny
deny
deny
deny
deny
deny
deny
deny
deny
deny
deny
deny
deny
deny
deny
deny
deny
deny
deny
deny
deny
deny
deny
deny
deny
deny
weight of 0 is 0.625592
weight of 1 is -14.625792
weight of 2 is -5.466667
weight of 3 is 0.000000
used!
weight of 0 is 1.132825
weight of 1 is -14.602099
weight of 2 is -5.288889
weight of 3 is 1.000000
used!
accept
accept
deny
deny
deny
deny
deny
deny
deny
deny
deny
deny
accept
accept
deny
deny
deny
deny
accept
accept
weight of 0 is 1.640055
weight of 1 is -14.567244
weight of 2 is -5.288889
weight of 3 is 2.000000
used!
weight of 0 is 2.147286
weight of 1 is -14.532389
weight of 2 is -5.288889
weight of 3 is 3.000000
used!
deny
deny
accept
accept
deny
deny
deny
deny
deny
deny
accept
accept
deny
deny
accept
accept
deny
deny
accept
accept
accept
accept
accept
accept
weight of 0 is 1.640168
weight of 1 is -14.557553
weight of 2 is -5.511111
weight of 3 is 2.000000
not used!
weight of 0 is 1.133162
weight of 1 is -14.566629
weight of 2 is -5.600000
weight of 3 is 1.000000
not used!
weight of 0 is 0.626069
weight of 1 is -14.566634
weight of 2 is -5.600000
weight of 3 is 0.000000
not used!
weight of 0 is 0.119249
weight of 1 is -14.589119
weight of 2 is -5.866667
weight of 3 is -1.000000
not used!
deny
deny
deny
deny
deny
deny
weight of 0 is -0.387562
weight of 1 is -14.612351
weight of 2 is -6.044444
weight of 3 is -2.000000
not used!
deny
deny
weight of 0 is -0.894394
weight of 1 is -14.612352
weight of 2 is -6.044444
weight of 3 is -3.000000
not used!
deny
deny
deny
deny
weight of 0 is -1.401489
weight of 1 is -14.625430
weight of 2 is -6.066667
weight of 3 is -4.000000
not used!
weight of 0 is -1.908331
weight of 1 is -14.643951
weight of 2 is -6.333333
weight of 3 is -5.000000
not used!
weight of 0 is -2.415427
weight of 1 is -14.662623
weight of 2 is -6.422222
weight of 3 is -6.000000
not used!
deny
deny
deny
deny
weight of 0 is -2.922342
weight of 1 is -14.675349
weight of 2 is -7.400000
weight of 3 is -7.000000
not used!
deny
deny
deny
deny
weight of 0 is -3.414124
weight of 1 is -14.675476
weight of 2 is -7.822222
weight of 3 is -8.000000
not used!
deny
deny
warn: ignoring syscall mprotect(...)
weight of 0 is -3.920942
weight of 1 is -14.691410
weight of 2 is -8.977778
weight of 3 is -9.000000
not used!
deny
deny
weight of 0 is -4.427789
weight of 1 is -14.693784
weight of 2 is -9.244444
weight of 3 is -10.000000
not used!
weight of 0 is -4.934810
weight of 1 is -14.707345
weight of 2 is -9.244444
weight of 3 is -11.000000
not used!
deny
deny
weight of 0 is -5.441915
weight of 1 is -14.717026
weight of 2 is -9.644444
weight of 3 is -12.000000
not used!
weight of 0 is -5.948767
weight of 1 is -14.737649
weight of 2 is -10.444444
weight of 3 is -13.000000
not used!
weight of 0 is -6.455575
weight of 1 is -14.743453
weight of 2 is -11.333333
weight of 3 is -14.000000
not used!
weight of 0 is -6.962399
weight of 1 is -14.744814
weight of 2 is -11.422222
weight of 3 is -15.000000
not used!
deny
deny
weight of 0 is -7.469344
weight of 1 is -14.756803
weight of 2 is -11.688889
weight of 3 is -16.000000
not used!
weight of 0 is -7.976443
weight of 1 is -14.767324
weight of 2 is -12.000000
weight of 3 is -17.000000
not used!
weight of 0 is -8.483551
weight of 1 is -14.791382
weight of 2 is -12.666667
weight of 3 is -18.000000
not used!
weight of 0 is -8.990439
weight of 1 is -14.809280
weight of 2 is -13.822222
weight of 3 is -19.000000
not used!
deny
deny
weight of 0 is -9.497540
weight of 1 is -14.824517
weight of 2 is -15.066667
weight of 3 is -20.000000
not used!
weight of 0 is -10.004371
weight of 1 is -14.826142
weight of 2 is -15.688889
weight of 3 is -21.000000
not used!
weight of 0 is -10.511488
weight of 1 is -14.851680
weight of 2 is -16.711111
weight of 3 is -22.000000
not used!
weight of 0 is -11.018481
weight of 1 is -14.861673
weight of 2 is -17.866667
weight of 3 is -23.000000
not used!
weight of 0 is -11.525583
weight of 1 is -14.868374
weight of 2 is -18.555556
weight of 3 is -24.000000
not used!
deny
deny
weight of 0 is -12.032432
weight of 1 is -14.868375
weight of 2 is -18.555556
weight of 3 is -25.000000
not used!
deny
deny
weight of 0 is -12.539536
weight of 1 is -14.880783
weight of 2 is -19.533333
weight of 3 is -26.000000
not used!
weight of 0 is -13.046648
weight of 1 is -14.883545
weight of 2 is -20.555556
weight of 3 is -27.000000
not used!
weight of 0 is -13.553586
weight of 1 is -14.897671
weight of 2 is -21.711111
weight of 3 is -28.000000
not used!
weight of 0 is -14.060695
weight of 1 is -14.909413
weight of 2 is -22.844444
weight of 3 is -29.000000
not used!
deny
deny
weight of 0 is -14.567510
weight of 1 is -14.933511
weight of 2 is -23.022222
weight of 3 is -30.000000
not used!
weight of 0 is -15.074349
weight of 1 is -14.933512
weight of 2 is -23.022222
weight of 3 is -31.000000
not used!
weight of 0 is -15.581456
weight of 1 is -14.957544
weight of 2 is -23.244444
weight of 3 is -32.000000
not used!
deny
deny
weight of 0 is -16.088329
weight of 1 is -14.976540
weight of 2 is -23.333333
weight of 3 is -33.000000
not used!
weight of 0 is -16.595442
weight of 1 is -14.993942
weight of 2 is -23.800000
weight of 3 is -34.000000
not used!
weight of 0 is -17.102249
weight of 1 is -15.019397
weight of 2 is -24.333333
weight of 3 is -35.000000
not used!
deny
deny
weight of 0 is -17.609059
weight of 1 is -15.020012
weight of 2 is -24.422222
weight of 3 is -36.000000
not used!
weight of 0 is -18.115887
weight of 1 is -15.021529
weight of 2 is -25.577778
weight of 3 is -37.000000
not used!
deny
deny
weight of 0 is -18.623005
weight of 1 is -15.047332
weight of 2 is -25.977778
weight of 3 is -38.000000
not used!
weight of 0 is -19.130009
weight of 1 is -15.056589
weight of 2 is -26.777778
weight of 3 is -39.000000
not used!
deny
deny
weight of 0 is -19.636828
weight of 1 is -15.073876
weight of 2 is -27.400000
weight of 3 is -40.000000
not used!
deny
deny
weight of 0 is -20.143846
weight of 1 is -15.092290
weight of 2 is -28.200000
weight of 3 is -41.000000
not used!
deny
deny
deny
deny
weight of 0 is -20.650911
weight of 1 is -15.094013
weight of 2 is -28.644444
weight of 3 is -42.000000
not used!
deny
deny
weight of 0 is -20.155525
weight of 1 is -15.089839
weight of 2 is -28.555556
weight of 3 is -41.000000
used!
weight of 0 is -19.660140
weight of 1 is -15.085665
weight of 2 is -28.466667
weight of 3 is -40.000000
used!
deny
deny
deny
deny
weight of 0 is -20.167255
weight of 1 is -15.097540
weight of 2 is -28.466667
weight of 3 is -41.000000
not used!
deny
deny
weight of 0 is -19.671818
weight of 1 is -14.176578
weight of 2 is -28.111111
weight of 3 is -40.000000
used!
weight of 0 is -19.176380
weight of 1 is -13.255616
weight of 2 is -27.755556
weight of 3 is -39.000000
used!
weight of 0 is -19.683359
weight of 1 is -13.267489
weight of 2 is -27.755556
weight of 3 is -40.000000
not used!
deny
deny
deny
deny
weight of 0 is -20.190475
weight of 1 is -13.267493
weight of 2 is -27.755556
weight of 3 is -41.000000
not used!
deny
deny
weight of 0 is -20.697316
weight of 1 is -13.290132
weight of 2 is -27.755556
weight of 3 is -42.000000
not used!
deny
deny
weight of 0 is -20.201869
weight of 1 is -13.287219
weight of 2 is -27.577778
weight of 3 is -41.000000
used!
weight of 0 is -19.706422
weight of 1 is -13.284305
weight of 2 is -27.400000
weight of 3 is -40.000000
used!
deny
deny
deny
deny
deny
deny
deny
deny
weight of 0 is -20.213377
weight of 1 is -13.291287
weight of 2 is -27.666667
weight of 3 is -41.000000
not used!
deny
deny
deny
deny
weight of 0 is -20.720497
weight of 1 is -13.302596
weight of 2 is -27.866667
weight of 3 is -42.000000
not used!
deny
deny
weight of 0 is -21.227313
weight of 1 is -13.327511
weight of 2 is -27.866667
weight of 3 is -43.000000
not used!
deny
deny
weight of 0 is -20.731878
weight of 1 is -13.326236
weight of 2 is -27.866667
weight of 3 is -42.000000
used!
weight of 0 is -20.236443
weight of 1 is -13.324961
weight of 2 is -27.866667
weight of 3 is -41.000000
used!
weight of 0 is -20.743285
weight of 1 is -13.327084
weight of 2 is -27.866667
weight of 3 is -42.000000
not used!
deny
deny
weight of 0 is -21.250289
weight of 1 is -13.342589
weight of 2 is -28.311111
weight of 3 is -43.000000
not used!
weight of 0 is -21.757411
weight of 1 is -13.349986
weight of 2 is -28.377778
weight of 3 is -44.000000
not used!
deny
deny
weight of 0 is -21.262025
weight of 1 is -12.398557
weight of 2 is -27.933333
weight of 3 is -43.000000
used!
weight of 0 is -20.766639
weight of 1 is -11.447128
weight of 2 is -27.488889
weight of 3 is -42.000000
used!
weight of 0 is -21.273448
weight of 1 is -11.473093
weight of 2 is -27.488889
weight of 3 is -43.000000
not used!
deny
deny
deny
deny
deny
deny
weight of 0 is -20.778011
weight of 1 is -10.551990
weight of 2 is -27.488889
weight of 3 is -42.000000
used!
weight of 0 is -20.282574
weight of 1 is -9.630887
weight of 2 is -27.488889
weight of 3 is -41.000000
used!
deny
deny
weight of 0 is -19.787188
weight of 1 is -9.626730
weight of 2 is -26.333333
weight of 3 is -40.000000
used!
weight of 0 is -19.291802
weight of 1 is -9.622572
weight of 2 is -25.177778
weight of 3 is -39.000000
used!
deny
deny
weight of 0 is -18.796364
weight of 1 is -9.620183
weight of 2 is -25.000000
weight of 3 is -38.000000
used!
weight of 0 is -18.300926
weight of 1 is -9.617795
weight of 2 is -24.822222
weight of 3 is -37.000000
used!
deny
deny
weight of 0 is -17.794175
weight of 1 is -8.695394
weight of 2 is -24.822222
weight of 3 is -36.000000
used!
weight of 0 is -17.287423
weight of 1 is -7.772993
weight of 2 is -24.822222
weight of 3 is -35.000000
used!
deny
deny
weight of 0 is -16.791988
weight of 1 is -6.822375
weight of 2 is -24.822222
weight of 3 is -34.000000
used!
weight of 0 is -16.296552
weight of 1 is -5.871758
weight of 2 is -24.822222
weight of 3 is -33.000000
used!
deny
deny
deny
deny
weight of 0 is -15.801112
weight of 1 is -5.867593
weight of 2 is -24.822222
weight of 3 is -32.000000
used!
weight of 0 is -15.305673
weight of 1 is -5.863428
weight of 2 is -24.822222
weight of 3 is -31.000000
used!
deny
deny
weight of 0 is -14.810233
weight of 1 is -4.942365
weight of 2 is -24.644444
weight of 3 is -30.000000
used!
weight of 0 is -14.314793
weight of 1 is -4.021302
weight of 2 is -24.466667
weight of 3 is -29.000000
used!
deny
deny
weight of 0 is -13.819353
weight of 1 is -3.100237
weight of 2 is -24.111111
weight of 3 is -28.000000
used!
weight of 0 is -13.323913
weight of 1 is -2.179172
weight of 2 is -23.755556
weight of 3 is -27.000000
used!
deny
deny
weight of 0 is -12.828473
weight of 1 is -2.179158
weight of 2 is -23.755556
weight of 3 is -26.000000
used!
weight of 0 is -12.333032
weight of 1 is -2.179143
weight of 2 is -23.755556
weight of 3 is -25.000000
used!
deny
deny
weight of 0 is -11.837592
weight of 1 is -2.179122
weight of 2 is -23.577778
weight of 3 is -24.000000
used!
weight of 0 is -11.342151
weight of 1 is -2.179101
weight of 2 is -23.400000
weight of 3 is -23.000000
used!
deny
deny
weight of 0 is -10.846711
weight of 1 is -2.179080
weight of 2 is -23.044444
weight of 3 is -22.000000
used!
weight of 0 is -10.351270
weight of 1 is -2.179059
weight of 2 is -22.688889
weight of 3 is -21.000000
used!
deny
deny
deny
deny
deny
deny
deny
deny
deny
deny
deny
deny
deny
deny
deny
deny
deny
deny
deny
deny
deny
deny
deny
deny
deny
deny
deny
deny
deny
deny
deny
deny
deny
deny
weight of 0 is -9.844123
weight of 1 is -2.160708
weight of 2 is -21.622222
weight of 3 is -20.000000
used!
weight of 0 is -9.336975
weight of 1 is -2.142358
weight of 2 is -20.555556
weight of 3 is -19.000000
used!
warn: ignoring syscall mprotect(...)
weight of 0 is -9.843843
weight of 1 is -2.172076
weight of 2 is -20.822222
weight of 3 is -20.000000
not used!
deny
deny
deny
deny
weight of 0 is -10.350920
weight of 1 is -2.187384
weight of 2 is -21.200000
weight of 3 is -21.000000
not used!
deny
deny
weight of 0 is -10.857980
weight of 1 is -2.199080
weight of 2 is -21.688889
weight of 3 is -22.000000
not used!
weight of 0 is -11.352690
weight of 1 is -2.199385
weight of 2 is -21.688889
weight of 3 is -23.000000
not used!
deny
deny
deny
deny
weight of 0 is -11.885614
weight of 1 is -2.199404
weight of 2 is -21.688889
weight of 3 is -24.000000
not used!
deny
deny
deny
deny
deny
deny
weight of 0 is -12.398198
weight of 1 is -2.289358
weight of 2 is -22.111111
weight of 3 is -25.000000
not used!
deny
deny
deny
deny
deny
deny
deny
deny
deny
deny
deny
deny
deny
deny
weight of 0 is -11.906204
weight of 1 is 0.095050
weight of 2 is -22.111111
weight of 3 is -24.000000
used!
weight of 0 is -11.414211
weight of 1 is 2.479459
weight of 2 is -22.111111
weight of 3 is -23.000000
used!
deny
deny
deny
deny
weight of 0 is -10.922216
weight of 1 is 2.479480
weight of 2 is -21.933333
weight of 3 is -22.000000
used!
weight of 0 is -10.430220
weight of 1 is 2.479502
weight of 2 is -21.755556
weight of 3 is -21.000000
used!
deny
deny
weight of 0 is -9.938225
weight of 1 is 2.479523
weight of 2 is -21.400000
weight of 3 is -20.000000
used!
weight of 0 is -9.446230
weight of 1 is 2.479544
weight of 2 is -21.044444
weight of 3 is -19.000000
used!
deny
deny
weight of 0 is -8.954234
weight of 1 is 2.675758
weight of 2 is -21.044444
weight of 3 is -18.000000
used!
weight of 0 is -8.462238
weight of 1 is 2.871973
weight of 2 is -21.044444
weight of 3 is -17.000000
used!
deny
deny
weight of 0 is -7.967836
weight of 1 is 2.988000
weight of 2 is -20.866667
weight of 3 is -16.000000
used!
weight of 0 is -7.473433
weight of 1 is 3.104028
weight of 2 is -20.688889
weight of 3 is -15.000000
used!
deny
deny
weight of 0 is -6.981437
weight of 1 is 3.104049
weight of 2 is -20.511111
weight of 3 is -14.000000
used!
weight of 0 is -6.489441
weight of 1 is 3.104071
weight of 2 is -20.333333
weight of 3 is -13.000000
used!
deny
deny
weight of 0 is -5.997445
weight of 1 is 3.104092
weight of 2 is -19.977778
weight of 3 is -12.000000
used!
weight of 0 is -5.505448
weight of 1 is 3.104113
weight of 2 is -19.622222
weight of 3 is -11.000000
used!
deny
deny
weight of 0 is -5.013452
weight of 1 is 3.300290
weight of 2 is -19.622222
weight of 3 is -10.000000
used!
weight of 0 is -4.521456
weight of 1 is 3.496466
weight of 2 is -19.622222
weight of 3 is -9.000000
used!
deny
deny
weight of 0 is -4.027050
weight of 1 is 3.692695
weight of 2 is -19.622222
weight of 3 is -8.000000
used!
weight of 0 is -3.532643
weight of 1 is 3.888923
weight of 2 is -19.622222
weight of 3 is -7.000000
used!
deny
deny
weight of 0 is -3.040647
weight of 1 is 3.888944
weight of 2 is -19.444444
weight of 3 is -6.000000
used!
weight of 0 is -2.548650
weight of 1 is 3.888966
weight of 2 is -19.266667
weight of 3 is -5.000000
used!
deny
deny
weight of 0 is -2.056653
weight of 1 is 3.888987
weight of 2 is -18.911111
weight of 3 is -4.000000
used!
weight of 0 is -1.564656
weight of 1 is 3.889008
weight of 2 is -18.555556
weight of 3 is -3.000000
used!
deny
deny
weight of 0 is -1.072660
weight of 1 is 4.085147
weight of 2 is -18.555556
weight of 3 is -2.000000
used!
weight of 0 is -0.580662
weight of 1 is 4.281286
weight of 2 is -18.555556
weight of 3 is -1.000000
used!
deny
deny
weight of 0 is -0.086256
weight of 1 is 4.477477
weight of 2 is -18.555556
weight of 3 is 0.000000
used!
weight of 0 is 0.408151
weight of 1 is 4.673668
weight of 2 is -18.555556
weight of 3 is 1.000000
used!
accept
accept
weight of 0 is 0.900148
weight of 1 is 4.673689
weight of 2 is -18.377778
weight of 3 is 2.000000
used!
weight of 0 is 1.392145
weight of 1 is 4.673710
weight of 2 is -18.200000
weight of 3 is 3.000000
used!
deny
deny
accept
accept
weight of 0 is 1.886552
weight of 1 is 4.869864
weight of 2 is -18.200000
weight of 3 is 4.000000
used!
weight of 0 is 2.380959
weight of 1 is 5.066017
weight of 2 is -18.200000
weight of 3 is 5.000000
used!
accept
accept
accept
accept
accept
accept
warn: ignoring syscall mprotect(...)
accept
accept
accept
accept
accept
accept
accept
accept
accept
accept
warn: ignoring syscall mprotect(...)
deny
deny
accept
accept
accept
accept
deny
deny
accept
accept
accept
accept
accept
accept
deny
deny
deny
deny
deny
deny
accept
accept
deny
deny
accept
accept
deny
deny
deny
deny
deny
deny
deny
deny
deny
deny
accept
accept
deny
deny
accept
accept
deny
deny
accept
accept
deny
deny
accept
accept
accept
accept
accept
accept
accept
accept
deny
deny
accept
accept
deny
deny
accept
accept
accept
accept
accept
accept
accept
accept
weight of 0 is 1.888961
weight of 1 is 4.869915
weight of 2 is -18.200000
weight of 3 is 4.000000
not used!
accept
accept
accept
accept
accept
accept
deny
deny
weight of 0 is 1.396961
weight of 1 is 4.869859
weight of 2 is -18.200000
weight of 3 is 3.000000
not used!
deny
deny
deny
deny
deny
deny
deny
deny
deny
deny
accept
accept
deny
deny
deny
deny
accept
accept
deny
deny
accept
accept
deny
deny
accept
accept
deny
deny
accept
accept
accept
accept
deny
deny
accept
accept
deny
deny
weight of 0 is 0.901894
weight of 1 is 2.732538
weight of 2 is -18.555556
weight of 3 is 2.000000
not used!
deny
deny
deny
deny
accept
accept
accept
accept
weight of 0 is 1.434818
weight of 1 is 2.732585
[...]
accept
accept
weight of 0 is -3.719764
weight of 1 is 17.009104
weight of 2 is -42.266667
weight of 3 is 6.000000
not used!
deny
deny
accept
accept
deny
deny
accept
accept
weight of 0 is -4.313056
weight of 1 is 10.764064
weight of 2 is -43.511111
weight of 3 is 5.000000
not used!
accept
accept
accept
accept
weight of 0 is -4.327052
weight of 1 is 6.889415
weight of 2 is -43.511111
weight of 3 is 4.000000
not used!
accept
accept
weight of 0 is -4.342178
weight of 1 is 0.765172
weight of 2 is -43.511111
weight of 3 is 3.000000
not used!
weight of 0 is -4.354568
weight of 1 is -1.474570
weight of 2 is -44.755556
weight of 3 is 2.000000
not used!
deny
deny
accept
accept
deny
deny
deny
deny
weight of 0 is -4.900013
weight of 1 is -3.742237
weight of 2 is -45.111111
weight of 3 is 1.000000
not used!
deny
deny
deny
deny
deny
deny
deny
deny
weight of 0 is -4.912984
weight of 1 is -7.619295
weight of 2 is -45.466667
weight of 3 is 0.000000
not used!
weight of 0 is -5.505949
weight of 1 is -11.496344
weight of 2 is -46.711111
weight of 3 is -1.000000
not used!
deny
deny
deny
deny
weight of 0 is -4.973025
weight of 1 is -10.432352
weight of 2 is -46.711111
weight of 3 is 0.000000
used!
weight of 0 is -4.440101
weight of 1 is -9.368360
weight of 2 is -46.711111
weight of 3 is 1.000000
used!
deny
deny
deny
deny
deny
deny
deny
deny
weight of 0 is -4.454444
weight of 1 is -15.468569
weight of 2 is -46.888889
weight of 3 is 0.000000
not used!
deny
deny
weight of 0 is -5.047408
weight of 1 is -21.631718
weight of 2 is -46.888889
weight of 3 is -1.000000
not used!
deny
deny
deny
deny
weight of 0 is -4.514484
weight of 1 is -21.631642
weight of 2 is -46.888889
weight of 3 is 0.000000
used!
weight of 0 is -3.981560
weight of 1 is -21.631567
weight of 2 is -46.888889
weight of 3 is 1.000000
used!
deny
deny
weight of 0 is -3.448636
weight of 1 is -21.613945
weight of 2 is -46.888889
weight of 3 is 2.000000
used!
weight of 0 is -2.915712
weight of 1 is -21.596322
weight of 2 is -46.888889
weight of 3 is 3.000000
used!
deny
deny
weight of 0 is -2.322325
weight of 1 is -16.674810
weight of 2 is -45.733333
weight of 3 is 4.000000
used!
weight of 0 is -1.728938
weight of 1 is -11.753297
weight of 2 is -44.577778
weight of 3 is 5.000000
used!
weight of 0 is -1.743295
weight of 1 is -17.854678
weight of 2 is -45.644444
weight of 3 is 4.000000
not used!
deny
deny
weight of 0 is -1.149692
weight of 1 is -12.933197
weight of 2 is -45.466667
weight of 3 is 5.000000
used!
weight of 0 is -0.556089
weight of 1 is -8.011717
weight of 2 is -45.288889
weight of 3 is 6.000000
used!
deny
deny
weight of 0 is -0.023165
weight of 1 is -3.090255
weight of 2 is -45.288889
weight of 3 is 7.000000
used!
weight of 0 is 0.509759
weight of 1 is 1.831207
weight of 2 is -45.288889
weight of 3 is 8.000000
used!
accept
accept
weight of 0 is 1.103146
weight of 1 is 6.752676
weight of 2 is -44.577778
weight of 3 is 9.000000
used!
weight of 0 is 1.696533
weight of 1 is 11.674145
weight of 2 is -43.866667
weight of 3 is 10.000000
used!
accept
accept
weight of 0 is 1.681407
weight of 1 is 11.673826
weight of 2 is -43.866667
weight of 3 is 9.000000
not used!
accept
accept
deny
deny
weight of 0 is 1.668441
weight of 1 is 9.387240
weight of 2 is -44.222222
weight of 3 is 8.000000
not used!
accept
accept
deny
deny
accept
accept
weight of 0 is 1.150698
weight of 1 is 8.191319
weight of 2 is -44.755556
weight of 3 is 7.000000
not used!
accept
accept
accept
accept
deny
deny
accept
accept
accept
accept
accept
accept
accept
accept
weight of 0 is 1.137763
weight of 1 is 5.970737
weight of 2 is -45.200000
weight of 3 is 6.000000
not used!
accept
accept
deny
deny
accept
accept
accept
accept
accept
accept
accept
accept
accept
accept
accept
accept
weight of 0 is 0.628789
weight of 1 is 4.023749
weight of 2 is -45.200000
weight of 3 is 5.000000
not used!
accept
accept
accept
accept
accept
accept
accept
accept
accept
accept
accept
accept
accept
accept
accept
accept
accept
accept
accept
accept
deny
deny
accept
accept
accept
accept
accept
accept
weight of 0 is 0.616068
weight of 1 is 3.938323
weight of 2 is -45.200000
weight of 3 is 4.000000
not used!
accept
accept
deny
deny
deny
deny
accept
accept
weight of 0 is 0.600942
weight of 1 is 3.617089
weight of 2 is -45.200000
weight of 3 is 3.000000
not used!
accept
accept
accept
accept
deny
deny
accept
accept
accept
accept
deny
deny
deny
deny
accept
accept
deny
deny
deny
deny
weight of 0 is 0.068018
weight of 1 is 3.617070
weight of 2 is -45.200000
weight of 3 is 2.000000
not used!
deny
deny
deny
deny
accept
accept
accept
accept
deny
deny
deny
deny
accept
accept
info: Increasing stack size by one page.
info: Increasing stack size by one page.
info: Increasing stack size by one page.
accept
accept
deny
deny
accept
accept
accept
accept
accept
accept
deny
deny
deny
deny
deny
deny
deny
deny
deny
deny
weight of 0 is 0.614956
weight of 1 is 3.617145
weight of 2 is -44.311111
weight of 3 is 3.000000
used!
weight of 0 is 1.161895
weight of 1 is 3.617220
weight of 2 is -43.422222
weight of 3 is 4.000000
used!
accept
accept
accept
accept
deny
deny
weight of 0 is 0.568509
weight of 1 is -1.304258
weight of 2 is -43.422222
weight of 3 is 3.000000
not used!
deny
deny
weight of 0 is 0.035585
weight of 1 is -6.228705
weight of 2 is -43.422222
weight of 3 is 2.000000
not used!
deny
deny
deny
deny
deny
deny
accept
accept
deny
deny
deny
deny
deny
deny
accept
accept
weight of 0 is -0.497340
weight of 1 is -7.255364
weight of 2 is -43.422222
weight of 3 is 1.000000
not used!
weight of 0 is -1.030264
weight of 1 is -7.255402
weight of 2 is -43.422222
weight of 3 is 0.000000
not used!
deny
deny
deny
deny
deny
deny
weight of 0 is -0.496936
weight of 1 is -4.995374
weight of 2 is -42.533333
weight of 3 is 1.000000
used!
weight of 0 is 0.036392
weight of 1 is -2.735346
weight of 2 is -41.644444
weight of 3 is 2.000000
used!
weight of 0 is -0.496532
weight of 1 is -3.900372
weight of 2 is -41.644444
weight of 3 is 1.000000
not used!
deny
deny
deny
deny
deny
deny
accept
accept
accept
accept
weight of 0 is -1.029456
weight of 1 is -3.900635
weight of 2 is -41.644444
weight of 3 is 0.000000
not used!
accept
accept
accept
accept
weight of 0 is -1.562380
weight of 1 is -4.039416
weight of 2 is -41.644444
weight of 3 is -1.000000
not used!
deny
deny
deny
deny
weight of 0 is -2.095304
weight of 1 is -5.075211
weight of 2 is -41.644444
weight of 3 is -2.000000
not used!
weight of 0 is -2.628229
weight of 1 is -5.075267
weight of 2 is -41.644444
weight of 3 is -3.000000
not used!
weight of 0 is -3.161153
weight of 1 is -5.075342
weight of 2 is -41.644444
weight of 3 is -4.000000
not used!
deny
deny
weight of 0 is -3.694076
weight of 1 is -5.075361
weight of 2 is -41.644444
weight of 3 is -5.000000
not used!
deny
deny
deny
deny
weight of 0 is -4.227000
weight of 1 is -5.075418
weight of 2 is -41.644444
weight of 3 is -6.000000
not used!
deny
deny
deny
deny
deny
deny
weight of 0 is -4.759925
weight of 1 is -5.075549
weight of 2 is -41.644444
weight of 3 is -7.000000
not used!
weight of 0 is -5.292849
weight of 1 is -5.075981
weight of 2 is -41.644444
weight of 3 is -8.000000
not used!
deny
deny
weight of 0 is -5.825773
weight of 1 is -5.076319
weight of 2 is -41.644444
weight of 3 is -9.000000
not used!
deny
deny
deny
deny
weight of 0 is -5.292849
weight of 1 is -4.052143
weight of 2 is -41.644444
weight of 3 is -8.000000
used!
weight of 0 is -4.759925
weight of 1 is -3.027966
weight of 2 is -41.644444
weight of 3 is -7.000000
used!
deny
deny
weight of 0 is -4.227001
weight of 1 is -3.027947
weight of 2 is -41.644444
weight of 3 is -6.000000
used!
weight of 0 is -3.694077
weight of 1 is -3.027928
weight of 2 is -41.644444
weight of 3 is -5.000000
used!
weight of 0 is -4.227001
weight of 1 is -3.028078
weight of 2 is -41.644444
weight of 3 is -6.000000
not used!
deny
deny
deny
deny
weight of 0 is -3.694077
weight of 1 is -3.028060
weight of 2 is -41.644444
weight of 3 is -5.000000
used!
weight of 0 is -3.161152
weight of 1 is -3.028041
weight of 2 is -41.644444
weight of 3 is -4.000000
used!
weight of 0 is -3.694077
weight of 1 is -3.028135
weight of 2 is -41.644444
weight of 3 is -5.000000
not used!
deny
deny
deny
deny
weight of 0 is -3.161153
weight of 1 is -3.028097
weight of 2 is -41.644444
weight of 3 is -4.000000
used!
weight of 0 is -2.628229
weight of 1 is -3.028060
weight of 2 is -41.644444
weight of 3 is -3.000000
used!
weight of 0 is -2.643355
weight of 1 is -4.338867
weight of 2 is -41.644444
weight of 3 is -4.000000
not used!
deny
deny
deny
deny
weight of 0 is -2.658481
weight of 1 is -4.398084
weight of 2 is -41.644444
weight of 3 is -5.000000
not used!
deny
deny
weight of 0 is -2.673607
weight of 1 is -4.401465
weight of 2 is -41.644444
weight of 3 is -6.000000
not used!
deny
deny
weight of 0 is -2.128101
weight of 1 is -x264 [error]: ratecontrol_init: can't open stats file
3.377354
weight of 2 is -40.400000
weight of 3 is -5.000000
used!
weight of 0 is -1.582595
weight of 1 is -2.353243
weight of 2 is -39.155556
weight of 3 is -4.000000
used!
deny
deny
weight of 0 is -1.597721
weight of 1 is -2.357677
weight of 2 is -39.155556
weight of 3 is -5.000000
not used!
deny
deny
deny
deny
deny
deny
deny
deny
deny
deny
weight of 0 is -1.064797
weight of 1 is -1.333669
weight of 2 is -39.155556
weight of 3 is -4.000000
used!
weight of 0 is -0.531873
weight of 1 is -0.309661
weight of 2 is -39.155556
weight of 3 is -3.000000
used!
deny
deny
weight of 0 is -1.078178
weight of 1 is -1.398854
weight of 2 is -39.155556
weight of 3 is -4.000000
not used!
weight of 0 is -1.624483
weight of 1 is -3.522970
weight of 2 is -39.155556
weight of 3 is -5.000000
not used!
weight of 0 is -2.157407
weight of 1 is -4.611993
weight of 2 is -39.155556
weight of 3 is -6.000000
not used!
deny
deny
deny
deny
deny
deny
deny
deny
deny
deny
deny
deny
deny
deny
deny
deny
deny
deny
deny
deny
deny
deny
deny
deny
weight of 0 is -2.690331
weight of 1 is -5.753086
weight of 2 is -39.155556
weight of 3 is -7.000000
not used!
deny
deny
weight of 0 is -3.292154
weight of 1 is -11.367782
weight of 2 is -39.511111
weight of 3 is -8.000000
not used!
deny
deny
weight of 0 is -2.745215
weight of 1 is -9.191926
weight of 2 is -39.155556
weight of 3 is -7.000000
used!
weight of 0 is -2.198275
weight of 1 is -7.016070
weight of 2 is -38.800000
weight of 3 is -6.000000
used!
weight of 0 is -2.745138
weight of 1 is -11.490864
weight of 2 is -38.977778
weight of 3 is -7.000000
not used!
deny
deny
weight of 0 is -2.212214
weight of 1 is -10.434716
weight of 2 is -38.977778
weight of 3 is -6.000000
used!
weight of 0 is -1.679290
weight of 1 is -9.378568
weight of 2 is -38.977778
weight of 3 is -5.000000
used!
deny
deny
weight of 0 is -1.132426
weight of 1 is -9.378131
weight of 2 is -38.266667
weight of 3 is -4.000000
used!
weight of 0 is -0.585561
weight of 1 is -9.377695
weight of 2 is -37.555556
weight of 3 is -3.000000
used!
weight of 0 is -1.118485
weight of 1 is -10.518818
weight of 2 is -37.555556
weight of 3 is -4.000000
not used!
deny
deny
weight of 0 is -1.636516
weight of 1 is -11.638182
weight of 2 is -37.555556
weight of 3 is -5.000000
not used!
deny
deny
deny
deny
deny
deny
deny
deny
deny
deny
deny
deny
weight of 0 is -2.169440
weight of 1 is -11.638201
weight of 2 is -37.555556
weight of 3 is -6.000000
not used!
weight of 0 is -2.702364
weight of 1 is -11.638389
weight of 2 is -37.555556
weight of 3 is -7.000000
not used!
weight of 0 is -3.235288
weight of 1 is -11.638483
weight of 2 is -37.555556
weight of 3 is -8.000000
not used!
deny
deny
deny
deny
deny
deny
deny
deny
deny
deny
deny
deny
deny
deny
deny
deny
deny
deny
deny
deny
deny
deny
deny
deny
deny
deny
deny
deny
deny
deny
deny
deny
deny
deny
weight of 0 is -2.740112
weight of 1 is -10.690085
weight of 2 is -37.200000
weight of 3 is -7.000000
used!
weight of 0 is -2.244936
weight of 1 is -9.741686
weight of 2 is -36.844444
weight of 3 is -6.000000
used!
deny
deny
deny
deny
deny
deny
deny
deny
deny
deny
deny
deny
deny
deny
deny
deny
weight of 0 is -2.231089
weight of 1 is -8.635630
weight of 2 is -36.311111
weight of 3 is -5.000000
used!
weight of 0 is -2.217242
weight of 1 is -7.529573
weight of 2 is -35.777778
weight of 3 is -4.000000
used!
deny
deny
deny
deny
weight of 0 is -2.202115
weight of 1 is -7.528502
weight of 2 is -35.777778
weight of 3 is -3.000000
used!
weight of 0 is -2.186989
weight of 1 is -7.527432
weight of 2 is -35.777778
weight of 3 is -2.000000
used!
deny
deny
deny
deny
deny
deny
deny
deny
deny
deny
deny
deny
deny
deny
deny
deny
weight of 0 is -1.692063
weight of 1 is -7.472051
weight of 2 is -34.711111
weight of 3 is -1.000000
used!
weight of 0 is -1.197137
weight of 1 is -7.416671
weight of 2 is -33.644444
weight of 3 is 0.000000
used!
accept
accept
weight of 0 is -0.702212
weight of 1 is -7.416666
weight of 2 is -33.644444
weight of 3 is 1.000000
used!
weight of 0 is -0.207286
weight of 1 is -7.416662
weight of 2 is -33.644444
weight of 3 is 2.000000
ux264 [error]: x264_encoder_open failed
sed!
deny
deny
accept
accept
deny
deny
deny
deny
accept
accept
deny
deny
deny
deny
deny
deny
deny
deny
deny
deny
deny
deny
deny
deny
deny
deny
deny
deny
deny
deny
deny
deny
accept
accept
accept
accept
accept
accept
accept
accept
deny
deny
weight of 0 is -0.192159
weight of 1 is -7.167446
weight of 2 is -33.644444
weight of 3 is 3.000000
used!
weight of 0 is -0.177033
weight of 1 is -6.918231
weight of 2 is -33.644444
weight of 3 is 4.000000
used!
accept
accept
deny
deny
deny
deny
accept
accept
deny
deny
deny
deny
accept
accept
deny
deny
weight of 0 is -0.164770
weight of 1 is -4.688814
weight of 2 is -33.288889
weight of 3 is 5.000000
used!
weight of 0 is -0.152507
weight of 1 is -2.459398
weight of 2 is -32.933333
weight of 3 is 6.000000
used!
accept
accept
deny
deny
weight of 0 is 0.393376
weight of 1 is -1.404589
weight of 2 is -31.688889
weight of 3 is 7.000000
used!
weight of 0 is 0.939259
weight of 1 is -0.349779
weight of 2 is -30.444444
weight of 3 is 8.000000
used!
accept
accept
accept
accept
accept
accept
deny
deny
accept
accept
accept
accept
accept
accept
accept
accept
accept
accept
deny
deny
accept
accept
accept
accept
accept
accept
accept
accept
accept
accept
deny
deny
accept
accept
accept
accept
accept
accept
accept
accept
deny
deny
deny
deny
accept
accept
deny
deny
accept
accept
accept
accept
accept
accept
accept
accept
accept
accept
deny
deny
accept
accept
accept
accept
accept
accept
accept
accept
accept
accept
deny
deny
accept
accept
deny
deny
accept
accept
accept
accept
weight of 0 is 0.447242
weight of 1 is -0.349974
weight of 2 is -30.511111
weight of 3 is 7.000000
not used!
accept
accept
accept
accept
accept
accept
deny
deny
deny
deny
accept
accept
deny
deny
deny
deny
weight of 0 is -0.084589
weight of 1 is -0.373513
weight of 2 is -30.511111
weight of 3 is 6.000000
not used!
accept
accept
accept
accept
accept
accept
deny
deny
deny
deny
accept
accept
deny
deny
deny
deny
accept
accept
accept
accept
weight of 0 is -0.099715
weight of 1 is -0.530913
weight of 2 is -30.511111
weight of 3 is 5.000000
not used!
accept
accept
deny
deny
deny
deny
deny
deny
accept
accept
weight of 0 is -0.114841
weight of 1 is -0.530932
weight of 2 is -30.511111
weight of 3 is 4.000000
not used!
accept
accept
accept
accept
accept
accept
deny
deny
deny
deny
deny
deny
deny
deny
deny
deny
weight of 0 is -0.636226
weight of 1 is -0.530995
weight of 2 is -30.511111
weight of 3 is 3.000000
not used!
accept
accept
deny
deny
deny
deny
accept
accept
accept
accept
accept
accept
weight of 0 is -1.169150
weight of 1 is -0.534753
weight of 2 is -30.511111
weight of 3 is 2.000000
not used!
accept
accept
accept
accept
weight of 0 is -1.702074
weight of 1 is -0.536594
weight of 2 is -30.511111
weight of 3 is 1.000000
not used!
accept
accept
weight of 0 is -2.234998
weight of 1 is -0.678363
weight of 2 is -30.511111
weight of 3 is 0.000000
not used!
deny
deny
deny
deny
weight of 0 is -2.767922
weight of 1 is -0.818309
weight of 2 is -30.511111
weight of 3 is -1.000000
not used!
deny
deny
deny
deny
deny
deny
deny
deny
deny
deny
weight of 0 is -2.234998
weight of 1 is -0.565921
weight of 2 is -30.511111
weight of 3 is 0.000000
used!
weight of 0 is -1.702074
weight of 1 is -0.313533
weight of 2 is -30.511111
weight of 3 is 1.000000
used!
accept
accept
weight of 0 is -2.234998
weight of 1 is -1.410144
weight of 2 is -30.511111
weight of 3 is 0.000000
not used!
weight of 0 is -2.767922
weight of 1 is -1.410238
weight of 2 is -30.511111
weight of 3 is -1.000000
not used!
deny
deny
deny
deny
deny
deny
deny
deny
weight of 0 is -3.300846
weight of 1 is -1.428725
weight of 2 is -30.511111
weight of 3 is -2.000000
not used!
deny
deny
deny
deny
deny
deny
deny
deny
weight of 0 is -3.820193
weight of 1 is -3.555196
weight of 2 is -30.688889
weight of 3 is -3.000000
not used!
deny
deny
deny
deny
weight of 0 is -3.287269
weight of 1 is -2.529058
weight of 2 is -30.688889
weight of 3 is -2.000000
used!
weight of 0 is -2.754345
weight of 1 is -1.502920
weight of 2 is -30.688889
weight of 3 is -1.000000
used!
deny
deny
weight of 0 is -2.221421
weight of 1 is -1.502901
weight of 2 is -30.688889
weight of 3 is 0.000000
used!
weight of 0 is -1.688497
weight of 1 is -1.502883
weight of 2 is -30.688889
weight of 3 is 1.000000
used!
accept
accept
weight of 0 is -1.155573
weight of 1 is -1.502864
weight of 2 is -30.688889
weight of 3 is 2.000000
used!
weight of 0 is -0.622648
weight of 1 is -1.502845
weight of 2 is -30.688889
weight of 3 is 3.000000
used!
deny
deny
weight of 0 is -1.155572
weight of 1 is -2.608324
weight of 2 is -30.688889
weight of 3 is 2.000000
not used!
deny
deny
weight of 0 is -0.609923
weight of 1 is -1.572501
weight of 2 is -30.333333
weight of 3 is 3.000000
used!
weight of 0 is -0.064273
weight of 1 is -0.536679
weight of 2 is -29.977778
weight of 3 is 4.000000
used!
weight of 0 is -0.584450
weight of 1 is -1.642853
weight of 2 is -30.155556
weight of 3 is 3.000000
not used!
deny
deny
weight of 0 is -0.599576
weight of 1 is -1.894116
weight of 2 is -30.155556
weight of 3 is 2.000000
not used!
accept
accept
deny
deny
weight of 0 is -0.053926
weight of 1 is -1.894076
weight of 2 is -29.622222
weight of 3 is 3.000000
used!
weight of 0 is 0.491724
weight of 1 is -1.894036
weight of 2 is -29.088889
weight of 3 is 4.000000
used!
weight of 0 is 0.479690
weight of 1 is -1.894048
weight of 2 is -29.088889
weight of 3 is 3.000000
not used!
accept
accept
weight of 0 is -0.053234
weight of 1 is -3.134938
weight of 2 is -29.088889
weight of 3 is 2.000000
not used!
deny
deny
deny
deny
weight of 0 is -0.599745
weight of 1 is -4.240853
weight of 2 is -29.266667
weight of 3 is 1.000000
not used!
deny
deny
deny
deny
deny
deny
weight of 0 is -1.132669
weight of 1 is -5.346713
weight of 2 is -29.266667
weight of 3 is 0.000000
not used!
deny
deny
weight of 0 is -1.665593
weight of 1 is -6.280267
weight of 2 is -29.266667
weight of 3 is -1.000000
not used!
deny
deny
weight of 0 is -2.212125
weight of 1 is -7.220309
weight of 2 is -29.444444
weight of 3 is -2.000000
not used!
deny
deny
weight of 0 is -1.666603
weight of 1 is -6.195069
weight of 2 is -29.444444
weight of 3 is -1.000000
used!
weight of 0 is -1.121081
weight of 1 is -5.169828
weight of 2 is -29.444444
weight of 3 is 0.000000
used!
accept
accept
deny
deny
deny
deny
weight of 0 is -0.575562
weight of 1 is -5.169781
weight of 2 is -28.733333
weight of 3 is 1.000000
used!
weight of 0 is -0.030043
weight of 1 is -5.169734
weight of 2 is -28.022222
weight of 3 is 2.000000
used!
deny
deny
weight of 0 is -0.014917
weight of 1 is -4.891664
weight of 2 is -28.022222
weight of 3 is 3.000000
used!
weight of 0 is 0.000209
weight of 1 is -4.613593
weight of 2 is -28.022222
weight of 3 is 4.000000
used!
weight of 0 is -0.494791
weight of 1 is -4.637284
weight of 2 is -28.022222
weight of 3 is 3.000000
not used!
Exiting @ tick 81716651000 because exiting with last active thread context
Simulated exit code not 0! Exit code is 255
